/*--------------------------------*- C++ -*----------------------------------*\
| =========                 |                                                 |
| \\      /  F ield         | OpenFOAM: The Open Source CFD Toolbox           |
|  \\    /   O peration     | Version:  2.2.2                                 |
|   \\  /    A nd           | Web:      www.OpenFOAM.org                      |
|    \\/     M anipulation  |                                                 |
\*---------------------------------------------------------------------------*/
FoamFile
{
    version     2.0;
    format      ascii;
    class       symmTensorAverageField;
    object      values;
}
// * * * * * * * * * * * * * * * * * * * * * * * * * * * * * * * * * * * * * //

// Average
(0 0 0 0 0 0)

// Data on points
547
(
(0.740608 -0.401408 0 1.441792 -0.0494848 1.062912)
(0.751872 -0.347392 0 1.379072 -0.002464 0.990976)
(0.750592 -0.326656 0 1.293056 0.02023936 0.872704)
(0.66944 -0.286976 0 1.1072 -0.0438272 0.809216)
(0.648704 -0.260864 0 0.988672 -0.0274688 0.748032)
(0.683776 -0.197248 0 0.981504 -0.106368 0.658944)
(0.603648 -0.1113344 0 0.877312 -0.1165312 0.683776)
(0.607488 -0.0417024 0 0.769024 -0.11328 0.609536)
(0.571648 0.01094144 0 0.820224 -0.170112 0.494336)
(0.627968 -0.01722112 0 0.705536 -0.2116096 0.489472)
(0.399616 0.01740544 0 0.602112 -0.1650176 0.360448)
(0.828416 -0.522752 0 1.679616 -0.0507392 1.039104)
(0.831488 -0.508928 0 1.616128 -0.1375488 1.11488)
(0.806912 -0.452608 0 1.572096 -0.1587456 1.123328)
(0.75264 -0.445952 0 1.451776 -0.0949248 1.05088)
(0.725248 -0.429056 0 1.313536 -0.106624 1.002752)
(0.669184 -0.379648 0 1.225216 -0.1100032 0.859392)
(0.580864 -0.330752 0 1.1136 -0.1905408 0.783616)
(0.455168 -0.2290944 0 0.78336 -0.13504 0.578816)
(0.320512 -0.1468928 0 0.533248 -0.0940544 0.318976)
(0.222976 -0.0752128 0 0.2458624 -0.0509696 0.1535488)
(0.0480768 -0.01006592 0 0.0503552 -0.00493056 0.0423168)
(0.75136 -0.4672 0 1.448448 -0.1195776 0.95744)
(0.70784 -0.3712 0 1.28128 0.0218496 0.964864)
(0.671488 -0.379392 0 1.256448 -0.0406784 0.883712)
(0.599808 -0.345856 0 1.170688 -0.0645888 0.754432)
(0.554496 -0.328192 0 1.013504 -0.09024 0.673536)
(0.496384 -0.2306816 0 0.87296 -0.0361216 0.55168)
(0.335104 -0.1651968 0 0.720128 -0.1099776 0.467968)
(0.290304 -0.113792 0 0.45952 -0.099712 0.2470656)
(0.1336832 -0.0466688 0 0.1780224 -0.0350208 0.1178112)
(0.0704 -0.0173824 0 0.0583168 -0.0066304 0.0448512)
(0.0280576 -0.00704512 0 0.01719552 -0.000273664 0.01382144)
(0.751872 -0.374528 0 1.33504 -0.0323328 0.914176)
(0.717824 -0.42752 0 1.21216 -0.0475648 0.864)
(0.662528 -0.355328 0 1.091584 -0.0852224 0.77056)
(0.526848 -0.284416 0 0.891392 -0.0776192 0.669696)
(0.41856 -0.2249984 0 0.714752 -0.0758272 0.531968)
(0.350976 -0.174848 0 0.56704 -0.0878848 0.461568)
(0.260608 -0.1375232 0 0.490752 -0.0679424 0.29056)
(0.1639936 -0.0588032 0 0.1980928 -0.0276992 0.1273856)
(0.0707328 -0.0187008 0 0.0681216 -0.01789952 0.0513792)
(0.0253312 -0.00221056 0 0.01633792 -0.00307456 0.0155008)
(0.0095488 -0.0033024 0 0.00753664 -0.001480448 0.00841472)
(0.707328 -0.445952 0 1.293568 0.01598208 0.92544)
(0.681728 -0.376064 0 1.15072 -0.0289792 0.7872)
(0.630528 -0.345088 0 0.991488 0.0387328 0.724736)
(0.506624 -0.303872 0 0.82688 -0.01557248 0.564736)
(0.389376 -0.2430208 0 0.632576 -0.0195328 0.443648)
(0.3328 -0.1720832 0 0.497664 0.005952 0.359936)
(0.258048 -0.1239296 0 0.329216 -0.0393472 0.2203904)
(0.1250816 -0.0318208 0 0.1371392 -0.029184 0.11328)
(0.0534528 -0.00891904 0 0.03392 -0.00835328 0.0352)
(0.01960704 -0.00332288 0 0.01085952 -0.0034432 0.0120064)
(0.00696064 -0.002752 0 0.0069248 -0.002279168 0.00646144)
(0.65792 -0.41856 0 1.290496 -7.56224E-05 0.9152)
(0.658432 -0.407808 0 1.188608 -0.02466304 0.765696)
(0.566016 -0.36224 0 0.98688 0.0535552 0.696576)
(0.475392 -0.2354176 0 0.83712 0.0346624 0.606976)
(0.453888 -0.261888 0 0.665088 0.01679616 0.490752)
(0.380416 -0.2194176 0 0.614656 -0.01775104 0.424192)
(0.276992 -0.1853184 0 0.486144 -0.0102016 0.330496)
(0.199424 -0.0962304 0 0.260864 -0.0379648 0.153216)
(0.1177856 -0.0462848 0 0.1349888 -0.01173504 0.0771584)
(0.0444928 -0.01262848 0 0.0388096 -0.00938752 0.0338944)
(0.01137664 -0.00140672 0 0.01071104 -0.001853184 0.00774656)
(0.74496 -0.40704 0 1.28256 0.0766464 0.897792)
(0.6592 -0.389888 0 1.12896 0.0460544 0.873984)
(0.573696 -0.380928 0 1.080064 0.0443648 0.76928)
(0.490496 -0.269568 0 0.812032 0.01825792 0.609024)
(0.435712 -0.2504448 0 0.747776 -0.01864448 0.461824)
(0.38016 -0.2120448 0 0.60544 -0.02345472 0.385536)
(0.297984 -0.1728256 0 0.510464 -0.01976064 0.333056)
(0.1701376 -0.0722432 0 0.2313216 -0.02234112 0.1642496)
(0.0839936 -0.0331264 0 0.1258752 -0.01441792 0.0677888)
(0.0439808 -0.0120576 0 0.0280576 -0.00721408 0.02239232)
(0.013696 -0.00369152 0 0.0202752 -0.002044672 0.008128)
(0.745216 -0.440576 0 1.20064 0.0455168 0.983808)
(0.692224 -0.447488 0 1.166336 -0.0107136 0.871936)
(0.532224 -0.303104 0 0.909312 -0.008896 0.6656)
(0.456704 -0.2490368 0 0.688128 -0.074368 0.498176)
(0.361728 -0.1929472 0 0.570368 -0.0333824 0.404992)
(0.2483712 -0.1138432 0 0.39552 -0.0327168 0.275968)
(0.1785856 -0.0545024 0 0.210688 -0.0456704 0.1497088)
(0.072576 -0.01824256 0 0.052608 -0.01088256 0.0433152)
(0.01965824 -0.00622592 0 0.01795328 -0.00382976 0.01035008)
(0.00921088 -0.001819648 0 0.01040896 -0.002489856 0.00588288)
(0.00537088 -0.00224896 0 0.0094976 -0.00431616 0.0095616)
(0.672768 -0.427264 0 1.242624 0.0093696 0.787456)
(0.635136 -0.39296 0 1.012736 -0.0256256 0.835072)
(0.520192 -0.332288 0 0.902144 -0.061824 0.70528)
(0.423936 -0.283392 0 0.745472 -0.0272384 0.538112)
(0.314112 -0.1897984 0 0.557312 -0.02047744 0.377856)
(0.2285312 -0.1257216 0 0.374272 -0.0509952 0.2081792)
(0.1797376 -0.07232 0 0.2060032 -0.0282624 0.1682432)
(0.0584704 -0.00937984 0 0.0372992 -0.01072128 0.0356096)
(0.0146304 -0.002402304 0 0.01001216 -0.0029696 0.00906752)
(0.01025792 -0.002208768 0 0.01375744 -0.001499392 0.00792064)
(0.00505088 -0.00282368 0 0.0106112 -0.002522112 0.00482304)
(0.0046592 -0.00280576 0 0.01670656 -0.001364736 0.00456448)
(0.00474368 -0.00296192 0 0.00881664 -0.002083584 0.00451328)
(0.00474112 -0.002624 0 0.01121024 -0.002487808 0.0043904)
(0.00461824 -0.00278272 0 0.01035776 -0.002301952 0.0043136)
(0.731136 -0.411136 0 1.308928 0.0827904 0.985856)
(0.65792 -0.434432 0 1.17248 0.0857856 0.872192)
(0.55552 -0.370432 0 0.993024 -0.002132224 0.708352)
(0.4544 -0.272384 0 0.805888 -0.01492736 0.599296)
(0.399104 -0.2285056 0 0.610304 -0.0271616 0.440832)
(0.265472 -0.1474048 0 0.467712 -0.0445184 0.312832)
(0.2115328 -0.0867584 0 0.302848 -0.02159104 0.2263552)
(0.0875776 -0.02492416 0 0.0724736 -0.02399488 0.0681728)
(0.02052864 -0.00278528 0 0.02446336 -0.0041984 0.01487616)
(0.01334272 -0.00300032 0 0.016128 -0.001640192 0.00856064)
(0.00641536 -0.002129408 0 0.0095744 -0.00258816 0.00524032)
(0.00468992 -0.002546176 0 0.01561856 -0.000988416 0.0049024)
(0.0044032 -0.00297728 0 0.02322944 0.001991936 0.00516096)
(0.00428288 -0.002476544 0 0.01654272 -0.002317568 0.00443904)
(0.00455168 -0.0032 0 0.00521472 -0.002278912 0.00420352)
(0.729856 -0.467968 0 1.429248 0.1006336 1.014016)
(0.70912 -0.490496 0 1.33248 0.0279552 0.899328)
(0.592384 -0.345344 0 1.073152 -0.0564992 0.841216)
(0.532736 -0.290816 0 0.92672 -0.00619008 0.709376)
(0.427264 -0.295424 0 0.781056 -0.0519424 0.57344)
(0.355584 -0.2176256 0 0.612864 -0.045184 0.430848)
(0.274176 -0.1394944 0 0.471552 -0.0396288 0.283392)
(0.1253376 -0.0367616 0 0.1850368 -0.0373504 0.10688)
(0.0491776 -0.00672512 0 0.0436992 -0.007104 0.0297728)
(0.01412608 -0.002369024 0 0.01848576 -0.00579584 0.01713664)
(0.0072576 -0.002308608 0 0.0141184 -0.001873408 0.00631296)
(0.00498432 -0.003712 0 0.01379328 -0.00280064 0.00499968)
(0.0050048 -0.00295168 0 0.01023744 -0.002446336 0.00428544)
(0.00464128 -0.00321792 0 0.01006592 -0.001958656 0.00428288)
(0.00467968 -0.0031488 0 0.00905984 -0.00284672 0.00415744)
(0.800256 -0.533248 0 1.424896 0.06656 1.011712)
(0.690432 -0.429824 0 1.315584 0.0365824 0.901632)
(0.603392 -0.374272 0 1.110016 0.0223232 0.749056)
(0.486912 -0.281344 0 0.892672 -0.0544256 0.60544)
(0.453888 -0.27008 0 0.766976 -0.02397184 0.505088)
(0.37376 -0.20928 0 0.592896 -0.0778496 0.34304)
(0.312832 -0.1433088 0 0.432128 -0.0494592 0.28672)
(0.1435648 -0.0473344 0 0.1766912 -0.0314112 0.1152)
(0.0531712 -0.00841216 0 0.0688384 -0.01782272 0.0459776)
(0.0273408 -0.00329216 0 0.01904128 -0.0049792 0.0150016)
(0.01259264 -0.0022784 0 0.01406464 -0.001814528 0.00605952)
(0.00590848 -0.000500992 0 0.0155136 -0.002449664 0.0046208)
(0.0052224 -0.00334848 0 0.0195456 -0.002087424 0.00447488)
(0.00470016 -0.00282112 0 0.01595904 -0.000838144 0.0047104)
(0.00498944 -0.0030464 0 0.01059328 -0.002164736 0.00435968)
(0.807936 -0.515328 0 1.284096 -0.00664576 0.882944)
(0.601344 -0.36864 0 1.0496 0.00582912 0.715008)
(0.579328 -0.312576 0 0.944896 -0.0271104 0.674304)
(0.462336 -0.30976 0 0.819456 -0.0692992 0.546816)
(0.360192 -0.1904128 0 0.565504 -0.0832 0.351232)
(0.249856 -0.1349632 0 0.40064 -0.026496 0.2445568)
(0.1967616 -0.0882944 0 0.247296 -0.037376 0.1232896)
(0.0686336 -0.01492736 0 0.0743424 -0.0107264 0.0390912)
(0.0278528 -0.00436736 0 0.0310784 -0.00402432 0.01111552)
(0.01502208 -0.001786368 0 0.01603328 -0.00292608 0.0080896)
(0.00774144 0.001201408 0 0.01963776 -9.07008E-06 0.01459712)
(0.00534784 -0.001130752 0 0.029696 -0.000191104 0.00530432)
(0.00502016 -0.002392064 0 0.023936 0.000219622 0.004864)
(0.00445184 -0.00261888 0 0.01539072 -0.000447488 0.00455424)
(0.00440832 -0.002328832 0 0.00644096 -0.0026112 0.00423424)
(0.701184 0.420608 0 1.561856 0.0095232 1.01504)
(0.616448 0.315904 0 1.335808 -0.01741568 0.899072)
(0.63872 0.370432 0 1.297152 0.0289792 0.834304)
(0.605952 0.311808 0 1.165312 0.01157376 0.753664)
(0.509696 0.253184 0 0.896768 0.037248 0.694272)
(0.417024 0.2250496 0 0.777216 -0.002284544 0.633344)
(0.466432 0.2201344 0 0.676352 -0.02041856 0.529408)
(0.31872 0.1396224 0 0.4288 -0.00905984 0.421632)
(0.2311936 0.0728832 0 0.272896 -0.0424448 0.2313984)
(0.2022656 0.077056 0 0.2158336 -0.0400384 0.1593856)
(0.1150208 0.0409344 0 0.095104 -0.02384384 0.099968)
(0.663552 0.42112 0 1.572352 0.0331264 1.146368)
(0.696832 0.441344 0 1.504512 0.0203904 1.042432)
(0.678912 0.38784 0 1.399808 -0.01456384 1.040128)
(0.630528 0.39552 0 1.320448 -0.0421888 0.913408)
(0.661504 0.412672 0 1.25184 -0.0665856 0.817664)
(0.580608 0.342784 0 1.133824 -0.0556544 0.749568)
(0.487168 0.2287104 0 0.903168 -0.00653312 0.673536)
(0.355584 0.2009088 0 0.731904 0.00269568 0.489984)
(0.2204928 0.1076224 0 0.410624 0.01713152 0.25728)
(0.1114368 0.02310912 0 0.1609984 0.02164224 0.1271552)
(0.02370816 0.001718272 0 0.01420288 0.00356864 0.01683968)
(0.70784 0.45824 0 1.526784 -0.0992512 1.027328)
(0.716032 0.462592 0 1.436416 -0.0507392 0.885248)
(0.67968 0.430592 0 1.560832 -0.1138176 0.920064)
(0.599552 0.414976 0 1.41184 -0.0726784 0.805632)
(0.5312 0.356096 0 1.134592 -0.0328448 0.723968)
(0.456192 0.326656 0 1.164032 -0.03328 0.6848)
(0.409344 0.262912 0 0.969728 0.01018624 0.50944)
(0.2507776 0.1327616 0 0.563712 -0.01175296 0.354816)
(0.2021632 0.1102592 0 0.397568 0.0141824 0.1366016)
(0.064768 0.01964288 0 0.1764352 0.0213376 0.131456)
(0.0352256 0.01128704 0 0.015872 0.002304256 0.01371904)
(0.618752 0.421888 0 1.67808 -0.0374784 0.982784)
(0.608 0.439552 0 1.423104 -0.1005312 0.899072)
(0.567808 0.3904 0 1.537792 -0.0803072 0.787968)
(0.579328 0.401664 0 1.464832 -0.0900608 0.737792)
(0.43008 0.310528 0 1.351168 -0.0856576 0.650496)
(0.415232 0.305664 0 1.285888 -0.0452608 0.601344)
(0.369152 0.29312 0 1.143296 0.02118144 0.491776)
(0.25728 0.1917184 0 0.530688 0.0276992 0.1238272)
(0.1331456 0.077696 0 0.344576 -0.00559616 0.1924864)
(0.0780288 0.0580864 0 0.1607424 0.0193024 0.0870144)
(0.0385024 0.01988608 0 0.0569088 0.00307968 0.0411904)
(0.585472 0.38528 0 1.376 -0.082688 0.840192)
(0.552192 0.359424 0 1.339392 -0.0516352 0.790528)
(0.464128 0.314624 0 1.033984 0.00989952 0.655104)
(0.3712 0.2356992 0 0.984064 -0.0358144 0.53632)
(0.37504 0.307712 0 1.05216 -0.01413376 0.400384)
(0.2084864 0.1203456 0 0.571904 -0.0272896 0.293888)
(0.173824 0.1087232 0 0.575744 0.02099968 0.282368)
(0.1014272 0.0577536 0 0.2263296 -0.002552576 0.111872)
(0.0886528 0.0512 0 0.1328384 0.000424448 0.0510208)
(0.0435712 0.02401536 0 0.0371456 -0.001147136 0.02233088)
(0.02295552 0.0114048 0 0.01700864 0.00314624 0.01288448)
(0.563968 0.349184 0 1.111808 -0.00454144 0.743168)
(0.451072 0.258048 0 0.911104 0.0459264 0.679936)
(0.434688 0.274944 0 0.824064 0.0484352 0.50304)
(0.323328 0.2033152 0 0.616704 0.0487936 0.388096)
(0.2124032 0.081408 0 0.414976 0.0570368 0.286208)
(0.1750272 0.0610816 0 0.292864 0.0502528 0.183552)
(0.098432 0.0296448 0 0.1369344 0.02525184 0.0845056)
(0.0324352 0.00418304 0 0.0239744 0.01070336 0.0259328)
(0.01484544 0.002376704 0 0.00894976 0.0038912 0.00916992)
(0.01134336 0.00393472 0 0.0096256 0.00379392 0.00649728)
(0.00556544 0.002390784 0 0.00666112 0.00224512 0.00649472)
(0.594944 0.325888 0 1.152256 -0.0269568 0.788736)
(0.468736 0.29568 0 0.948992 0.0263168 0.735744)
(0.410112 0.2254848 0 0.818688 0.0250368 0.628992)
(0.345088 0.1865984 0 0.717824 0.02165248 0.47616)
(0.302336 0.1716224 0 0.555776 0.0365056 0.355328)
(0.2213376 0.082944 0 0.421888 0.0456192 0.264704)
(0.1745664 0.0793344 0 0.287232 0.0460032 0.1684736)
(0.0765184 0.01833472 0 0.0854528 0.01982464 0.0589056)
(0.0324352 0.00587776 0 0.0279552 0.00466944 0.02107136)
(0.01807616 0.0045952 0 0.01412096 0.0044672 0.01047808)
(0.00659456 0.00264192 0 0.01009408 0.00278528 0.00637952)
(0.5952 0.383232 0 1.168128 0.02176768 0.828416)
(0.533504 0.312832 0 0.996096 0.01160448 0.704768)
(0.491008 0.32128 0 0.923392 0.0221568 0.593408)
(0.4224 0.2511104 0 0.759808 -0.0223488 0.587264)
(0.340992 0.214144 0 0.633856 -0.00587776 0.416256)
(0.2469376 0.1201664 0 0.47488 0.0127232 0.336896)
(0.2203392 0.102656 0 0.328192 0.0358912 0.2439424)
(0.0986624 0.034432 0 0.160384 0.02183936 0.1075456)
(0.0478208 0.01261312 0 0.0438784 0.01039104 0.0305152)
(0.02202368 0.002470656 0 0.01683712 0.00338944 0.01353472)
(0.00679168 0.002252288 0 0.00667648 0.00278272 0.00634112)
(0.614912 0.369664 0 1.177344 -0.02000896 0.821504)
(0.584448 0.347136 0 1.034752 0.0322048 0.716032)
(0.469504 0.250496 0 0.841216 0.01220608 0.62848)
(0.388352 0.2533888 0 0.751872 0.00986112 0.56832)
(0.32896 0.181376 0 0.600576 0.00752384 0.417792)
(0.265728 0.1221632 0 0.477696 0.00897792 0.34688)
(0.210048 0.1075712 0 0.34944 0.0363776 0.2429696)
(0.105088 0.042752 0 0.1440768 0.0292096 0.1020416)
(0.0473344 0.00982272 0 0.0421632 0.01184 0.0391424)
(0.02041088 0.00343296 0 0.01897216 0.002459904 0.0140928)
(0.007232 0.0026496 0 0.00631552 0.00304128 0.00531456)
(0.00473856 0.00269056 0 0.0083584 0.002443776 0.00423424)
(0.00450304 0.002557696 0 0.00309248 0.00276992 0.00430848)
(0.00445952 0.002440704 0 0.00589056 0.002403584 0.0046464)
(0.004736 0.00267008 0 0.00511232 0.0023168 0.0051968)
(0.616448 0.377088 0 1.142016 -0.02452736 0.7872)
(0.577536 0.321536 0 0.919296 0.0108032 0.680704)
(0.440832 0.264448 0 0.817152 0.0422912 0.558848)
(0.334592 0.2130176 0 0.677376 0.031104 0.503296)
(0.308992 0.1661184 0 0.532992 0.0427776 0.34176)
(0.2121472 0.1192448 0 0.37888 0.0414208 0.2441728)
(0.17536 0.069632 0 0.262656 0.0292096 0.1578752)
(0.089088 0.0315648 0 0.0925184 0.0150528 0.0742912)
(0.0356864 0.00802816 0 0.0283648 0.00947968 0.0217088)
(0.01590784 0.00477952 0 0.011584 0.00313344 0.0104576)
(0.00695808 0.002204672 0 0.01065472 0.00283136 0.00684544)
(0.00466432 0.002471936 0 0.00753664 0.002542592 0.0044288)
(0.0042752 0.00259328 0 0.0084864 0.002484736 0.004544)
(0.0046336 0.00297472 0 0.00347648 0.002528 0.00436224)
(0.00475904 0.00256256 0 0.00613632 0.00308992 0.00908544)
(0.498176 0.287488 0 1.018112 -0.0530944 0.685312)
(0.451328 0.263936 0 0.850944 -0.0637952 0.675328)
(0.390912 0.220288 0 0.730112 -0.02246912 0.534272)
(0.364544 0.2156032 0 0.61696 0.0194688 0.46336)
(0.2477056 0.126848 0 0.43264 0.0282112 0.327424)
(0.1883648 0.0759808 0 0.307712 0.0266752 0.2036736)
(0.1226752 0.0576512 0 0.2057984 0.02284288 0.1558528)
(0.0643584 0.01882112 0 0.070016 0.01216 0.0528896)
(0.0297472 0.00545024 0 0.0214656 0.002516992 0.0185088)
(0.01801984 0.007232 0 0.01421056 0.00346112 0.0105728)
(0.00752384 0.00294912 0 0.01019392 0.00290304 0.0055808)
(0.00484096 0.00307456 0 0.00317184 0.00270592 0.00429824)
(0.00430592 0.002466304 0 0.00596224 0.00256256 0.00440064)
(0.004224 0.00289536 0 0.00749312 0.00293632 0.00440576)
(0.004864 0.00264448 0 0.01484544 0.002413824 0.00553984)
(0.586752 0.354048 0 1.032192 -0.0191232 0.70272)
(0.509696 0.311808 0 0.95744 0.0080384 0.639232)
(0.39424 0.231168 0 0.66816 0.01403904 0.521984)
(0.275456 0.1758208 0 0.608768 0.0684032 0.365568)
(0.2164224 0.0876544 0 0.386816 0.059136 0.281856)
(0.1294848 0.0603392 0 0.258048 0.0350464 0.1411072)
(0.0685568 0.01254144 0 0.1163008 0.0402176 0.1064704)
(0.0406528 0.01040896 0 0.044544 0.01040896 0.0288256)
(0.01678336 0.001837312 0 0.01336064 0.00498176 0.01207552)
(0.00941056 0.00339712 0 0.01164032 0.00350976 0.0085248)
(0.00591872 0.002482176 0 0.00450048 0.00256256 0.00574976)
(0.0047488 0.00261376 0 0.01081344 0.00326144 0.00512768)
(0.00449792 0.00261888 0 0.01067008 0.00270848 0.0046848)
(0.00435968 0.00266496 0 0.001882368 0.00259072 0.0049152)
(0.0054272 0.00317696 0 0.0261632 0.00434176 0.00624896)
(0.688128 0.446976 0 1.321984 -0.0616704 0.888832)
(0.593664 0.35328 0 1.12128 -0.1124608 0.834048)
(0.489728 0.288512 0 0.919296 -0.03712 0.7424)
(0.427264 0.259328 0 0.825344 0.0058496 0.680704)
(0.34304 0.209664 0 0.653824 -0.027008 0.495616)
(0.277504 0.1692672 0 0.514816 0.01630976 0.444928)
(0.2393344 0.122496 0 0.412672 0.00572928 0.332288)
(0.1352192 0.0691968 0 0.2266624 0.02144512 0.190592)
(0.0639744 0.01902848 0 0.0779264 0.01193728 0.0742912)
(0.044416 0.01728512 0 0.04416 0.0060544 0.031232)
(0.00965376 0.002064128 0 0.00916224 0.00339712 0.00876288)
(0.00479232 0.00286464 0 0.0085248 0.00243584 0.00473088)
(0.0045184 0.00307456 0 0.00703744 0.00256768 0.00471296)
(0.0045056 0.00282112 0 0.00362752 0.00287488 0.004288)
(0.00507392 0.0027008 0 0.00473088 0.00262144 0.00539136)
(1.288192 -0.0718592 0 1.99552 -0.478976 0.72832)
(1.241088 0.01277696 0 1.81504 -0.390144 0.772864)
(1.11488 0.0922624 0 1.67424 -0.430336 0.703744)
(1.127424 0.1346048 0 1.671936 -0.435968 0.731648)
(1.032704 0.276992 0 1.619712 -0.34432 0.690176)
(1.031424 0.1964544 0 1.46816 -0.339456 0.633088)
(1.045248 -0.362496 0 2.002944 -0.367616 0.727296)
(1.07264 -0.0993536 0 1.632256 -0.411392 0.68224)
(1.068544 0.1807104 0 1.29536 -0.340736 0.65792)
(1.050368 0.293888 0 1.55776 -0.256768 0.606208)
(1.056256 0.39296 0 1.803264 -0.292608 0.713984)
(1.069568 -0.1301504 0 1.585408 -0.392704 0.59904)
(1.143296 -0.1368832 0 1.856768 -0.47744 0.722432)
(1.125376 0.00628736 0 1.535232 -0.408832 0.682496)
(1.043712 0.0604928 0 1.458432 -0.410624 0.727552)
(1.094144 0.1662208 0 1.58976 -0.486656 0.79744)
(1.136128 0.2393856 0 1.68192 -0.498944 0.885504)
(0.95232 -0.0688896 0 1.477376 -0.42112 0.725504)
(0.867072 0.01235968 0 1.232128 -0.41856 0.689664)
(0.774144 0.0482816 0 1.162752 -0.293888 0.570368)
(0.760832 0.1458432 0 1.182464 -0.31488 0.547584)
(0.951552 0.326912 0 1.516288 -0.312576 0.644096)
(0.98304 0.2265344 0 1.36832 -0.31232 0.632576)
(0.85888 -0.404224 0 1.795328 -0.346112 0.6208)
(0.506112 -0.1470208 0 1.019136 -0.179968 0.4224)
(0.375808 0.050048 0 0.427008 -0.043008 0.284672)
(0.57856 0.292864 0 1.202176 -0.0369664 0.449536)
(0.935424 0.385792 0 1.656064 -0.288512 0.57728)
(0.962048 -0.245248 0 1.498112 -0.361472 0.634368)
(0.93312 -0.181376 0 1.487872 -0.402432 0.66048)
(0.663808 0.0448768 0 1.080064 -0.260352 0.461568)
(0.43136 0.0967936 0 0.714496 -0.2193152 0.385024)
(0.384256 0.1219072 0 0.763904 -0.208128 0.402432)
(0.613376 0.2108928 0 1.151488 -0.38912 0.617984)
(0.663808 -0.0557568 0 1.172224 -0.335104 0.555776)
(0.547584 0.000501504 0 0.95232 -0.286464 0.483328)
(0.431104 0.0814848 0 0.712704 -0.2028288 0.36864)
(0.4992 0.1186816 0 0.777984 -0.1821952 0.364288)
(0.759808 0.329728 0 1.35168 -0.2216192 0.583936)
(1.019136 0.2464256 0 1.255168 -0.327168 0.639488)
(0.802816 -0.355328 0 1.49888 -0.244608 0.555264)
(0.414208 -0.2113024 0 0.918272 -0.1752576 0.403968)
(0.284416 0.0288 0 0.35072 0.00629504 0.198528)
(0.549376 0.348928 0 0.962048 0.02277632 0.353792)
(0.8768 0.36992 0 1.359104 -0.2298368 0.574464)
(0.97536 -0.349696 0 1.467392 -0.33536 0.590336)
(0.780288 -0.2480384 0 1.417728 -0.382208 0.61824)
(0.391424 0.01785344 0 0.639488 -0.1736448 0.342784)
(0.170752 0.0549888 0 0.2481664 -0.0662784 0.1662464)
(0.154624 0.055808 0 0.2530304 -0.0644608 0.2028544)
(0.286464 0.1328384 0 0.522752 -0.1237248 0.371456)
(0.458496 -0.0351488 0 0.715776 -0.1838848 0.384256)
(0.292096 0.0347392 0 0.441088 -0.1568512 0.324352)
(0.2048768 0.03072 0 0.283904 -0.0565248 0.164608)
(0.257536 0.0805632 0 0.359424 -0.0780032 0.20608)
(0.757504 0.380928 0 1.232384 -0.1251584 0.452864)
(0.8128 0.289024 0 1.306368 -0.328704 0.589312)
(0.781056 -0.1983744 0 1.121536 -0.2301696 0.5056)
(0.432384 -0.193024 0 0.77568 -0.170112 0.374016)
(0.35456 0.0700672 0 0.415488 -0.0275968 0.2187264)
(0.506624 0.319488 0 0.882432 0.0406528 0.356864)
(0.905984 0.271104 0 1.149696 -0.1993472 0.574976)
(0.912128 -0.293888 0 1.359872 -0.343808 0.677376)
(0.72704 -0.268288 0 1.133056 -0.2506496 0.430848)
(0.2060544 0.035712 0 0.292096 -0.0892928 0.1668096)
(0.0767488 0.01626368 0 0.0658944 -0.01063936 0.0737792)
(0.0449792 0.01371648 0 0.0572928 -0.020736 0.0665088)
(0.101376 0.0363776 0 0.1359104 -0.0302336 0.1326336)
(0.270336 -0.0157568 0 0.377088 -0.119168 0.275456)
(0.1326848 0.01961728 0 0.1377536 -0.0345344 0.1633792)
(0.0771584 0.01040128 0 0.0879104 -0.02446592 0.1157632)
(0.1495552 0.0333312 0 0.1375488 -0.01356032 0.1017856)
(0.523008 0.297472 0 0.9728 -0.1015296 0.387072)
(0.771584 0.260864 0 1.150464 -0.284672 0.558592)
(0.711424 -0.1440256 0 0.966912 -0.23616 0.48384)
(0.459776 -0.220928 0 0.754688 -0.1967616 0.37248)
(0.415232 0.02093824 0 0.428288 -0.01359616 0.2148352)
(0.658688 0.324352 0 0.879616 -0.0416512 0.371456)
(0.812032 0.1233152 0 0.9856 -0.1869568 0.542464)
(0.839424 -0.322048 0 1.26848 -0.289024 0.598272)
(0.532992 -0.1866496 0 1.019136 -0.239872 0.411648)
(0.0999424 0.0071808 0 0.1257984 -0.0388608 0.1060608)
(0.0460032 0.0079616 0 0.0351232 -0.00720384 0.0408576)
(0.0273664 0.00507648 0 0.02281728 -0.00107136 0.0288)
(0.0403712 0.01076992 0 0.0436992 -0.001189632 0.0684544)
(0.0625664 -0.01216 0 0.0840704 -0.02497536 0.0698368)
(0.01273344 0.00314112 0 0.01443328 -0.002102784 0.01453312)
(0.02053632 0.0028288 0 0.01740032 -0.00329984 0.01954048)
(0.0361216 0.00291072 0 0.0256256 -0.00476416 0.0376064)
(0.1378816 0.043136 0 0.1566208 -0.0341504 0.1520896)
(0.343808 0.1730816 0 0.5056 -0.1150208 0.2322432)
(0.480256 0.1008128 0 0.593664 -0.1634048 0.308736)
(0.472832 -0.0697088 0 0.471296 -0.1089792 0.2350848)
(0.568832 0.0890368 0 0.397824 -0.0366848 0.2144768)
(0.551424 0.1094912 0 0.592128 -0.1268992 0.285952)
(0.493056 -0.0928512 0 0.730624 -0.1979904 0.356096)
(0.33408 -0.0921088 0 0.545792 -0.1764608 0.290304)
(0.1431296 -0.003584 0 0.1769472 -0.0619776 0.1501696)
(0.037888 0.00314624 0 0.0318464 -0.0099456 0.0473088)
(0.02208768 0.00441344 0 0.02304256 -0.007488 0.0295936)
(0.01479168 0.00147328 0 0.01449728 -0.002168576 0.01526016)
(0.0427264 0.01524992 0 0.0369152 0.001737728 0.01831936)
(0.0598528 -0.01275136 0 0.0515584 -0.01549824 0.045184)
(0.01001472 0.002415872 0 0.01164288 -0.0013376 0.01149696)
(0.01538048 0.001526272 0 0.0122112 -0.001781504 0.01481216)
(0.0300544 0.002345728 0 0.01545472 -0.0039296 0.0293632)
(0.063104 0.00653568 0 0.040704 0.002217216 0.073728)
(0.1179392 0.02752 0 0.1126144 -0.02473216 0.140544)
(0.2103296 0.0361728 0 0.2386688 -0.0605952 0.1646848)
(0.333824 0.01423104 0 0.2496 -0.0333312 0.1491968)
(0.404992 0.0656128 0 0.281344 -0.0309248 0.1637632)
(0.359936 0.02203648 0 0.3456 -0.0796672 0.1982208)
(0.1927168 -0.02237184 0 0.289792 -0.1194496 0.2316544)
(0.1204736 0.00740352 0 0.1179904 -0.0481792 0.1550592)
(0.0585984 0.00542464 0 0.049152 -0.0063744 0.0779776)
(0.0317696 0.002410496 0 0.02400768 -0.00357632 0.0365312)
(0.01787392 0.00278016 0 0.0179456 -0.00420608 0.01886208)
(0.01423872 0.001456384 0 0.01046784 -0.001151744 0.01185792)
(0.0427008 0.01542144 0 0.0410112 -0.001775616 0.01625344)
(0.01167616 0.002368512 0 0.01932032 -0.00369152 0.00971264)
(0.0062464 0.001545216 0 0.0134144 -0.001841152 0.00698368)
(0.00827648 0.003392 0 0.01390592 -0.00052992 0.00762112)
(0.01352448 0.003264 0 0.00934912 -0.00261888 0.011904)
(0.034176 0.005824 0 0.01823232 -0.00282368 0.0339712)
(0.0499712 0.00930304 0 0.0313856 0.000832 0.063616)
(0.0546048 0.0055168 0 0.0449792 -0.00373248 0.1014528)
(0.0832768 0.00231808 0 0.0537088 -0.00905216 0.105728)
(0.0922624 0.00830208 0 0.0614144 -0.01093376 0.1020928)
(0.0779776 0.00569344 0 0.0613888 -0.0116224 0.1284352)
(0.051968 0.00535552 0 0.0498688 -0.00677632 0.1113856)
(0.0421376 0.001126912 0 0.0303104 -0.00696576 0.0600576)
(0.0316416 0.001357568 0 0.02371072 -0.005696 0.034432)
(0.01755136 0.001215232 0 0.01798656 -0.00264192 0.02123264)
(0.00952832 0.001199104 0 0.01463296 0.00313856 0.01355264)
(0.00900608 0.00138496 0 0.01183488 -0.000936448 0.00784896)
(0.0282368 0.01223424 0 0.0471296 0.0028032 0.0355584)
(0.00797952 0.002301952 0 0.01537792 0.00408832 0.01391872)
(0.00584192 0.001317376 0 0.01414912 -0.001521408 0.00598784)
(0.00650496 0.00287488 0 0.0128384 -0.000124339 0.00654336)
(0.00617216 0.00173952 0 0.01015296 -0.001485568 0.00626944)
(0.0075904 0.0027776 0 0.01171456 -0.00089856 0.00695808)
(0.0078976 0.0033024 0 0.00781312 -0.00147072 0.00639488)
(0.00833024 0.002535168 0 0.00728576 -0.0019264 0.00698624)
(0.00856576 0.00278016 0 0.01429248 -0.001751808 0.0074752)
(0.00779776 0.002208512 0 0.01070592 -0.001063936 0.00696064)
(0.00847616 0.0026752 0 0.01059072 -0.000914176 0.00876032)
(0.0071168 0.00346368 0 0.01746432 -0.001014016 0.00775424)
(0.00683008 0.00242688 0 0.00974848 -0.001701888 0.00657152)
(0.0071808 0.00285696 0 0.00750848 -0.001272832 0.0070144)
(0.00609024 0.002437376 0 0.01597696 -0.000686848 0.00532992)
(0.00632064 0.00279296 0 0.00873728 0.000602624 0.00617728)
(0.00726784 0.002520832 0 0.00984576 0.001175808 0.00950272)
(0.0285184 0.0111488 0 0.02336768 -0.001643008 0.0078848)
(0.01232128 0.002193408 0 0.01872896 -0.000883712 0.00961536)
(0.00599552 0.00297728 0 0.01318656 -0.00064896 0.00582144)
(0.00554496 0.001398016 0 0.01486336 -0.001665792 0.00507136)
(0.00590848 0.000850176 0 0.01293312 -0.001535488 0.00507392)
(0.0054784 0.000892928 0 0.01372672 -0.00206976 0.00486144)
(0.00579072 0.0027008 0 0.01430016 -0.002291456 0.004864)
(0.00541952 0.001821184 0 0.00977152 -0.0018432 0.00482048)
(0.00530432 0.0016256 0 0.01247744 -0.002162944 0.0050048)
(0.00542976 0.001413632 0 0.011968 -0.001938432 0.00456192)
(0.005632 0.001177344 0 0.01123584 -0.00276992 0.00484608)
(0.0054144 0.00204288 0 0.01009152 -0.002083584 0.00456704)
(0.00531456 0.000865792 0 0.01131776 -0.001684736 0.00473856)
(0.00557312 0.001238272 0 0.01913344 -0.001916672 0.00475904)
(0.00531456 0.001183488 0 0.01237248 -0.002184192 0.00440576)
(0.00540928 0.001765632 0 0.01222656 -0.00069376 0.00621824)
(0.0055808 0.00171008 0 0.0156928 -0.00606464 0.00756992)
(0.00751616 0.002473472 0 0.00861184 -0.00029184 0.00819712)
(0.01129728 0.001504768 0 0.0213504 -0.001820928 0.00850944)
(0.0055808 0.002201856 0 0.00810496 -0.002353408 0.00470272)
(0.00532736 0.001626112 0 0.01229312 -0.002372864 0.00466688)
(0.0054144 0.000878336 0 0.01268736 -0.00283648 0.00476928)
(0.00553728 0.000815616 0 0.01134336 -0.000985344 0.0054016)
(0.0050944 0.000777728 0 0.01676032 -0.002520832 0.00460032)
(0.00560896 0.000329472 0 0.01591808 -0.00269824 0.0045056)
(0.005312 0.000784896 0 0.0150144 -0.002435328 0.00493824)
(0.0055424 0.001006592 0 0.01027328 -0.00333312 0.00484608)
(0.00574976 0.001153024 0 0.01584896 -0.00305408 0.00445696)
(0.00552448 0.001229312 0 0.01277184 -0.0032512 0.00453376)
(0.00525312 0.000932096 0 0.01027328 -0.00299008 0.00423936)
(0.00496128 0.000578816 0 0.01758976 -0.00271104 0.00445184)
(0.0048896 0.001153792 0 0.01394944 -0.000916992 0.00607488)
(0.00535808 0.000905984 0 0.01232384 0.00292096 0.0106496)
(0.00526848 0.001569024 0 0.01686016 -0.00073216 0.01030144)
(0.00978176 0.00205184 0 0.01082624 -0.001856256 0.00607744)
(0.00887296 0.002282752 0 0.01280768 0.00037248 0.00859136)
(0.00551936 0.001483264 0 0.0161792 0.001417984 0.00780544)
(0.00575744 0.001416192 0 0.01867264 -0.002328064 0.00496896)
(0.00579584 0.000213786 0 0.01948416 -0.0017664 0.00534016)
(0.00539648 0.001116416 0 0.01197824 -0.002103552 0.00514816)
(0.00483584 0.000655104 0 0.01463552 -0.001331968 0.00545792)
(0.00553728 0.001783296 0 0.0176 -0.002375168 0.00487424)
(0.0052736 0.001475584 0 0.01168896 -0.002048768 0.0050816)
(0.00501248 0.001769728 0 0.02150656 -0.001697536 0.00493824)
(0.0052736 0.00220032 0 0.01374976 -0.0027776 0.00512)
(0.00524032 0.001542144 0 0.01656576 -0.002056192 0.00496384)
(0.00525824 0.002377472 0 0.01878528 -0.00208128 0.00454912)
(0.00456704 0.001570304 0 0.01164288 -0.002543104 0.004864)
(0.00483072 0.001152 0 0.01285888 -0.00214912 0.00496128)
(0.00582656 0.00100608 0 0.0141312 -0.001672192 0.00580608)
(0.00540928 0.002093056 0 0.01028864 -0.001433344 0.00532736)
(0.0093952 0.00187904 0 0.01075712 -0.00265728 0.00562688)
(0.00673792 0.00301056 0 0.00565248 -0.00338176 0.00561664)
(0.0056832 0.003072 0 0.011328 -0.002329856 0.00445952)
(0.00548864 0.001031936 0 0.01802752 -0.002284544 0.0046208)
(0.00499712 0.0012928 0 0.01308416 -0.00275712 0.00483072)
(0.0050816 0.001632768 0 0.01466112 -0.00274176 0.00482048)