/*--------------------------------*- C++ -*----------------------------------*\
| =========                 |                                                 |
| \\      /  F ield         | OpenFOAM: The Open Source CFD Toolbox           |
|  \\    /   O peration     | Version:  2.2.2                                 |
|   \\  /    A nd           | Web:      www.OpenFOAM.org                      |
|    \\/     M anipulation  |                                                 |
\*---------------------------------------------------------------------------*/
FoamFile
{
    version     2.0;
    format      ascii;
    class       scalarAverageField;
    object      values;
}
// * * * * * * * * * * * * * * * * * * * * * * * * * * * * * * * * * * * * * //

// Average
0.0

// Data on points
547
(
52.10155439
45.83059562
37.12015367
25.4272486
19.5995912
18.22369582
14.5016965
10.99826913
9.925854982
8.613551659
3.76796336
70.28959253
69.35113655
65.68327828
52.54782028
42.05155953
31.5215429
23.21194304
8.890742095
2.445196235
0.349938392
0.003869108
48.44691703
38.55391682
33.70988821
24.94687528
17.10976101
10.76173304
5.60546914
1.522744825
0.114328064
0.007553766
0.000325318
40.63588379
32.29141399
23.73338492
13.41593694
6.824990525
3.816678227
1.763870146
0.169109966
0.009740119
0.000278605
2.31535E-05
37.73635149
26.74398401
18.82418063
10.1108503
4.633898903
2.438837439
0.756179705
0.073563929
0.00271909
0.000117612
1.16178E-05
35.98961055
27.14501821
16.9838744
10.54580488
5.998954444
4.212216133
1.963334152
0.340371855
0.053099818
0.00225737
3.79526E-05
37.28677266
27.82288187
21.57780113
10.25047755
6.75372552
3.833695332
2.234262499
0.259007148
0.032617975
0.001309068
0.000122616
36.52292049
29.99074749
13.84823022
6.41948215
3.4943233
1.142162428
0.221831604
0.007059316
0.000166736
2.45979E-05
2.18465E-05
30.28594795
22.18407457
14.23451122
7.42465089
2.934502754
0.81840288
0.236670768
0.003390225
5.64892E-05
4.83059E-05
1.46662E-05
4.12724E-05
9.47612E-06
1.5499E-05
1.27798E-05
41.33491065
29.4473474
17.22692647
9.582830587
4.426542043
1.723078691
0.581803424
0.016662137
0.000312848
8.27473E-05
1.45187E-05
3.5327E-05
0.000101395
3.93737E-05
3.79966E-06
48.9438392
38.80756529
23.50897195
15.10633384
8.49655459
4.079933838
1.661693888
0.108775378
0.002693996
0.000172607
3.56724E-05
2.66168E-05
1.29102E-05
1.20051E-05
9.5539E-06
50.80178846
37.55580648
22.66978359
11.85789165
7.690955082
3.399369487
1.589413782
0.118841759
0.006813703
0.000349036
5.5763E-05
3.66075E-05
6.36452E-05
3.69848E-05
1.39561E-05
38.69652317
19.85044576
15.62281857
9.220557894
3.102384671
1.07567538
0.279272618
0.009130523
0.000576327
9.18236E-05
0.000120937
0.000205728
0.00011093
3.30614E-05
5.00919E-06
56.40884707
36.6701106
33.28125961
24.84428587
13.75287848
9.16022005
6.680045019
2.255638183
0.553070732
0.271404878
0.041470769
62.17144439
53.74821627
46.89230833
36.72084064
31.27115786
23.10007109
13.2318096
6.131132494
1.079522068
0.091045892
0.000242512
54.83881763
44.05784253
51.8445115
37.20942778
21.6731522
20.72415782
11.44075593
2.579412449
0.726172954
0.086321866
0.000493086
60.80676432
41.01671734
43.04765888
37.65456777
27.16438285
23.14807677
15.65216775
1.565743309
0.517097958
0.056162376
0.00367832
36.10453063
32.162427
16.05028175
11.77298187
11.95325643
2.209673803
2.09831227
0.144103352
0.033716069
0.001660682
0.000220252
21.87336056
13.08971201
8.492553841
3.624408144
1.171116017
0.416036063
0.048018616
0.000788826
5.39571E-05
3.06089E-05
9.11553E-06
25.01703205
15.32420075
9.80826171
5.716762814
2.733649108
1.158299487
0.380247242
0.015339325
0.000777641
0.000114737
1.81602E-05
26.68514074
16.89815502
12.43875304
8.260958243
4.112422108
1.809887072
0.717066012
0.072954359
0.002639041
0.000210061
1.07164E-05
27.25409767
19.10841163
10.88811915
7.57839364
3.692831697
1.941354607
0.764917848
0.062053626
0.002958477
0.000217867
9.45572E-06
8.28176E-06
2.40935E-06
4.75664E-06
4.70029E-06
25.01924395
15.05375744
9.10530645
5.352396675
2.501907979
0.884550737
0.314913902
0.023370819
0.000920928
7.91779E-05
2.15859E-05
6.95915E-06
8.36061E-06
2.72821E-06
1.2215E-05
16.62523575
11.64726793
6.84897995
4.446186722
1.518040672
0.508803415
0.167052276
0.009219214
0.000496288
0.000115414
1.8985E-05
2.68049E-06
4.50414E-06
6.45802E-06
3.25801E-05
18.7894837
14.2779354
5.849168371
3.161195701
1.036877577
0.237420899
0.036364568
0.002136543
0.000106732
3.65695E-05
5.94095E-06
1.52707E-05
1.39441E-05
2.28395E-06
0.000147839
37.38409195
25.04285626
14.97249569
10.93802409
5.031283365
2.839078633
1.405870157
0.246859496
0.014053483
0.002452744
2.89502E-05
9.17303E-06
6.3292E-06
2.6709E-06
4.85227E-06
109.7030103
90.57724534
69.23888858
70.62644143
60.84217084
49.27958587
95.6585374
63.35592668
41.9688775
55.04774525
77.06162606
57.58734772
86.71909351
59.1615927
51.86551593
65.14335658
77.69168554
49.19343496
32.54874991
24.57616123
24.58140585
49.26550756
41.70239615
64.82700099
12.79315136
1.841317776
19.96410979
56.18384185
48.30615869
47.26353631
17.56985711
5.555545722
6.039069433
21.52513382
22.14120863
12.36775472
5.407008807
7.017231545
32.5441013
37.60490546
40.94477718
9.147212609
0.858660973
11.25371677
36.17587928
45.90791968
37.19501938
4.008824169
0.2914084
0.33180566
2.478916186
5.807836369
1.709669793
0.414276918
0.830595978
24.91792628
31.99799644
22.13942118
6.401328382
1.457276394
8.96986165
27.82730271
39.80974117
20.20621009
0.439148808
0.014041913
0.006865688
0.071370798
1.123990358
0.113872682
0.031887511
0.083974072
11.46885247
23.84026246
15.51168959
6.310191779
1.823575751
11.16714404
19.10956603
31.2420035
13.0409584
0.051048729
0.002544149
0.000688012
0.005337293
0.014289524
0.000100369
0.000263278
0.001403212
0.123169309
2.001703288
3.997700726
2.536756493
2.743639183
4.521661093
6.146554076
2.482413916
0.145036959
0.002296343
0.00059001
0.000121817
0.001496621
0.005392635
5.05136e-05
0.000106486
0.000641991
0.00833838
0.071379743
0.328877886
0.620810914
1.003703965
1.107422665
0.522792538
0.086011974
0.009322928
0.001129018
0.00022533
6.89641e-05
0.001655762
0.000106188
3.13429e-05
4.09465e-05
5.9836e-05
0.000978464
0.00467414
0.013536639
0.021769575
0.024480543
0.030592892
0.016697047
0.003578632
0.001031173
0.000254775
7.72668e-05
3.40215e-05
0.00200535
7.85269e-05
3.17732e-05
2.8273e-05
1.73476e-05
2.71448e-05
1.50689e-05
1.6038e-05
4.35788e-05
2.39652e-05
3.01246e-05
6.06562e-05
1.79834e-05
1.40936e-05
4.11013e-05
1.37328e-05
2.66113e-05
0.00038345
0.000103849
2.7222e-05
3.30525e-05
2.46182e-05
2.69458e-05
3.02866e-05
1.28936e-05
2.15971e-05
1.92616e-05
1.74868e-05
1.34091e-05
1.71039e-05
6.15374e-05
2.03475e-05
2.2936e-05
4.38117e-05
1.99105e-05
0.000120176
9.28185e-06
2.04308e-05
2.22456e-05
1.85176e-05
4.2505e-05
3.81367e-05
3.3169e-05
1.44449e-05
3.79433e-05
2.24282e-05
1.32896e-05
4.76188e-05
2.92018e-05
3.60663e-05
6.11739e-05
2.82512e-05
4.02996e-05
4.74819e-05
5.86383e-05
6.64253e-05
2.01002e-05
3.12793e-05
4.97227e-05
1.87767e-05
8.28974e-05
2.71149e-05
4.22139e-05
5.75005e-05
1.72884e-05
2.22879e-05
3.12753e-05
1.49571e-05
2.58806e-05
8.13024e-06
1.73513e-05
5.22605e-05
2.3267e-05
3.06907e-05
4.01587e-05
5.2694e-05
4.78802e-05
1.13397e-05
2.92032e-05
5.02173e-05
1.94126e-05
2.55974e-05
7.14918e-05
4.9649e-05
2.60217e-05
0.000125214
)

