/*--------------------------------*- C++ -*----------------------------------*\
| =========                 |                                                 |
| \\      /  F ield         | OpenFOAM: The Open Source CFD Toolbox           |
|  \\    /   O peration     | Version:  2.2.2                                 |
|   \\  /    A nd           | Web:      www.OpenFOAM.org                      |
|    \\/     M anipulation  |                                                 |
\*---------------------------------------------------------------------------*/
FoamFile
{
    version     2.0;
    format      ascii;
    class       vectorAverageField;
    object      values;
}
// * * * * * * * * * * * * * * * * * * * * * * * * * * * * * * * * * * * * * //

// Average
(0 0 0)

// Data on points
547
(
(-0.2528 11.616 0.3888)
(-0.1648 12.128 0.2432)
(-0.13232 12.464 0.1824)
(-0.0256 12.704 0.1272)
(-0.03328 12.96 0.07408)
(0.0248 13.152 0.014896)
(0.06 13.376 -0.02672)
(0.10672 13.664 -0.12864)
(0.13424 13.792 -0.14384)
(0.12336 13.92 -0.1512)
(0.1712 14.288 -0.2016)
(-0.00232 11.376 0.6144)
(0.009216 11.824 0.5152)
(0.0224 12.208 0.4864)
(0.0012544 12.576 0.368)
(0.04592 13.104 0.3488)
(0.02896 13.536 0.2384)
(0.06656 13.584 0.2368)
(0.09776 14.288 0.1616)
(0.13088 14.624 0.11856)
(0.2208 14.864 0.08624)
(0.2336 15.024 0.07728)
(-0.11792 12.384 0.6096)
(-0.10576 12.784 0.496)
(-0.05104 13.088 0.4384)
(0.02928 13.68 0.36)
(0.02 13.92 0.3376)
(0.0376 14.128 0.2624)
(0.09008 14.336 0.264)
(0.15568 14.704 0.2048)
(0.2656 15.104 0.1824)
(0.2752 15.136 0.1744)
(0.2128 15.232 0.13088)
(-0.10304 12.752 0.5728)
(-0.08816 13.184 0.4944)
(-0.08064 13.616 0.4512)
(-0.02864 14.08 0.4384)
(0.02848 14.32 0.3696)
(0.009632 14.56 0.3392)
(0.09664 14.912 0.3072)
(0.1824 15.2 0.2576)
(0.224 15.232 0.2352)
(0.2336 15.36 0.232)
(0.1808 15.36 0.1904)
(-0.13152 13.344 0.568)
(-0.11184 13.744 0.5248)
(-0.1152 14.064 0.504)
(-0.0384 14.56 0.4816)
(-0.012016 14.768 0.4288)
(0.01792 14.992 0.4)
(0.06896 15.248 0.368)
(0.1696 15.504 0.3136)
(0.208 15.504 0.3056)
(0.1904 15.568 0.3248)
(0.14464 15.552 0.2624)
(-0.10816 13.408 0.5168)
(-0.10672 13.696 0.488)
(-0.02704 14.208 0.4368)
(-0.0632 14.512 0.4672)
(-0.00848 14.944 0.3728)
(0.0264 15.056 0.3408)
(0.05392 15.184 0.3424)
(0.108 15.44 0.328)
(0.1504 15.632 0.2752)
(0.1488 15.696 0.2592)
(0.11552 15.712 0.2256)
(-0.0912 13.488 0.3536)
(-0.1224 13.792 0.328)
(-0.05632 14.24 0.3216)
(-0.03456 14.64 0.28)
(0.014064 14.976 0.2848)
(0.01968 15.184 0.2448)
(0.0192 15.376 0.2336)
(0.09936 15.6 0.2144)
(0.1936 15.728 0.2256)
(0.2096 15.808 0.1968)
(0.1936 15.856 0.1888)
(-0.1792 13.744 0.2432)
(-0.1808 14.096 0.2576)
(-0.14752 14.624 0.2144)
(-0.14048 15.024 0.2208)
(-0.108 15.296 0.1728)
(-0.02048 15.616 0.1872)
(0.0528 15.776 0.1776)
(0.15632 15.872 0.14128)
(0.1592 15.888 0.11408)
(0.13536 15.92 0.08688)
(0.13936 15.904 0.08736)
(-0.2368 13.472 0.288)
(-0.2016 14.096 0.232)
(-0.1952 14.48 0.2528)
(-0.13152 14.976 0.2048)
(-0.116 15.296 0.184)
(-0.006192 15.568 0.1776)
(0.04912 15.696 0.1888)
(0.1632 15.872 0.13904)
(0.1696 15.856 0.1128)
(0.13856 15.888 0.10576)
(0.13952 15.872 0.07248)
(0.09024 15.888 0.03248)
(0.07616 15.92 0.005744)
(0.03344 15.936 -0.02064)
(-0.0464 15.856 -0.013712)
(-0.1856 13.296 0.10272)
(-0.2032 13.856 0.07056)
(-0.1648 14.416 0.07872)
(-0.16 14.832 0.06592)
(-0.072 15.264 0.02592)
(0.0013808 15.52 0.05104)
(0.06432 15.696 0.015184)
(0.192 15.824 -0.013024)
(0.2288 15.92 -0.02032)
(0.232 15.952 -0.02704)
(0.176 15.936 -0.02704)
(0.12128 15.952 -0.0005952)
(0.10272 16 -0.03408)
(0.05232 15.984 -0.06032)
(-0.005664 15.936 -0.06)
(-0.12096 12.928 0.05824)
(-0.14752 13.632 -0.00432)
(-0.1328 14.112 -0.0002304)
(-0.13248 14.48 -0.010528)
(-0.10432 14.896 0.05136)
(-0.07104 15.232 -0.04336)
(-0.012064 15.488 -0.02432)
(0.13296 15.872 -0.03984)
(0.1904 15.952 -0.04688)
(0.184 15.984 -0.03376)
(0.15264 15.952 -0.02688)
(0.09664 16 -0.07376)
(0.05968 16 -0.10016)
(0.03728 16 -0.12016)
(-0.0002992 15.936 -0.11968)
(-0.15872 13.104 -0.07344)
(-0.1368 13.664 -0.06688)
(-0.12928 14.192 -0.09072)
(-0.09552 14.656 -0.0624)
(-0.064 14.848 -0.09872)
(-0.05008 15.36 -0.11984)
(0.05808 15.552 -0.15392)
(0.1512 15.92 -0.1936)
(0.2224 15.968 -0.1664)
(0.2336 16 -0.1728)
(0.2112 15.984 -0.14624)
(0.1616 16 -0.13328)
(0.1336 16 -0.1664)
(0.07616 16 -0.1984)
(0.016 16 -0.2)
(-0.1528 13.424 -0.2336)
(-0.1352 14.064 -0.2272)
(-0.13584 14.32 -0.1872)
(-0.04592 14.896 -0.2128)
(-0.005568 15.184 -0.2256)
(0.05584 15.552 -0.2288)
(0.1144 15.68 -0.2432)
(0.2416 15.824 -0.2272)
(0.2576 15.856 -0.2208)
(0.2544 15.872 -0.248)
(0.2224 15.888 -0.2608)
(0.1824 15.872 -0.288)
(0.15856 15.968 -0.3056)
(0.09808 16 -0.2928)
(0.0432 15.904 -0.2992)
(0.2496 12.144 0.4624)
(0.2752 12.688 0.3344)
(0.304 13.056 0.2768)
(0.2112 13.344 0.2144)
(0.2176 14.064 0.09616)
(0.1792 14.224 0.07232)
(0.1776 14.384 -0.003568)
(0.0968 14.752 -0.07664)
(0.01952 15.104 -0.13952)
(-0.02992 15.232 -0.13776)
(-0.12048 15.36 -0.12944)
(-0.04272 11.984 0.408)
(0.04208 12.448 0.4528)
(-0.03728 12.88 0.4208)
(0.002624 13.056 0.3904)
(-0.03152 13.216 0.3216)
(-0.01888 13.904 0.1984)
(0.04352 14.096 0.12656)
(0.0003264 14.768 -0.03248)
(-0.05408 15.104 -0.06016)
(-0.03872 15.344 -0.0448)
(-0.13248 15.424 -0.1496)
(0.07632 12.224 0.3728)
(0.0664 12.704 0.3184)
(0.06528 13.248 0.248)
(0.02816 13.712 0.224)
(-0.12128 13.728 0.1616)
(0.05392 13.952 0.15888)
(-0.14848 14.736 0.04832)
(-0.09792 14.4 0.11664)
(-0.192 14.912 -0.03184)
(-0.2176 15.2 -0.05232)
(-0.168 15.568 -0.07888)
(0.05792 12.448 0.2544)
(-0.1984 13.456 0.4112)
(-0.2176 14 0.288)
(0.01856 13.824 0.1984)
(-0.1064 14.272 0.2464)
(-0.05008 13.76 0.12944)
(-0.3632 14.176 0.11104)
(-0.2688 14.928 -0.010032)
(-0.2032 15.856 0.032)
(-0.2432 15.28 0.01872)
(-0.1792 15.472 -0.0304)
(0.1696 13.44 0.1968)
(-0.0512 13.824 0.184)
(0.03632 14.448 0.1312)
(0.1952 13.824 0.05856)
(0.02736 14.288 0.11744)
(-0.05824 15.488 -0.03744)
(-0.2624 15.424 0.15168)
(-0.2192 15.312 0.07536)
(-0.1792 15.6 0.08736)
(-0.2848 15.696 0.08688)
(-0.2112 15.744 0.1072)
(0.14688 13.632 0.2896)
(0.08944 14.16 0.2864)
(0.07952 14.464 0.192)
(0.04096 14.976 0.2496)
(-0.07984 15.28 0.1808)
(-0.12224 15.536 0.1856)
(-0.1664 15.664 0.1776)
(-0.2352 15.712 0.1552)
(-0.2368 15.76 0.1616)
(-0.1888 15.808 0.1272)
(-0.14896 15.872 0.10656)
(0.1176 13.6 0.2192)
(0.09744 13.984 0.2288)
(0.0752 14.56 0.184)
(-0.013088 14.976 0.1648)
(-0.01952 15.104 0.1272)
(-0.06992 15.488 0.15168)
(-0.14416 15.664 0.12976)
(-0.2336 15.792 0.1216)
(-0.224 15.856 0.128)
(-0.2128 15.936 0.09344)
(-0.1648 15.952 0.08624)
(0.11696 13.536 0.11664)
(0.03872 14.16 0.10416)
(0.02656 14.464 0.12496)
(-0.00184 14.768 0.07088)
(-0.024 15.12 0.06928)
(-0.04624 15.392 0.06096)
(-0.08608 15.648 0.06032)
(-0.1984 15.84 0.02528)
(-0.24 15.984 0.03872)
(-0.2576 16 0.05232)
(-0.2336 15.984 0.06592)
(0.15568 13.376 0.10832)
(0.06768 13.888 0.128)
(0.0256 14.352 0.15424)
(0.03872 14.752 0.12816)
(0.00632 15.088 0.08992)
(-0.02288 15.296 0.0608)
(-0.08784 15.52 0.08752)
(-0.1272 15.808 0.05232)
(-0.2288 15.936 0.07216)
(-0.2288 15.952 0.0656)
(-0.2128 15.968 0.09232)
(-0.168 15.936 0.06528)
(-0.11248 15.936 0.011408)
(-0.044 15.952 0.004592)
(0.004896 15.968 0.011312)
(0.09904 13.904 -0.004032)
(0.03312 14.336 0.011712)
(0.0656 14.688 0.004128)
(0.01888 14.992 -0.03952)
(0.012176 15.28 -0.05296)
(-0.04256 15.472 -0.03088)
(-0.12112 15.84 -0.0368)
(-0.14544 15.856 -0.02288)
(-0.232 15.952 -0.008896)
(-0.2096 15.936 -0.02944)
(-0.1984 15.984 -0.03616)
(-0.1696 15.984 -0.06992)
(-0.11536 15.984 -0.04272)
(-0.03824 16 -0.04288)
(0.02064 15.984 -0.05664)
(0.09072 13.984 -0.04352)
(0.08144 14.448 -0.0496)
(0.02416 14.848 -0.05536)
(0.0006288 15.12 -0.04688)
(-0.03504 15.328 -0.08944)
(-0.11744 15.584 -0.07312)
(-0.15456 15.824 -0.08608)
(-0.2 15.968 -0.09872)
(-0.2096 16 -0.11216)
(-0.2048 16 -0.10512)
(-0.1856 16 -0.11168)
(-0.13136 16 -0.11776)
(-0.10672 16 -0.132)
(-0.03184 16 -0.13168)
(0.00576 16.16 -0.1176)
(0.1616 14.224 -0.128)
(0.11728 14.832 -0.1824)
(0.05408 15.056 -0.12)
(0.06432 15.408 -0.16)
(-0.05952 15.84 -0.1616)
(-0.10608 15.712 -0.1984)
(-0.16 15.936 -0.1888)
(-0.2032 15.968 -0.2144)
(-0.1888 16 -0.1872)
(-0.168 16 -0.2)
(-0.1568 16 -0.1936)
(-0.13456 16 -0.2)
(-0.0784 16.16 -0.2112)
(-0.02336 16 -0.2336)
(0.02112 16.16 -0.192)
(0.05776 13.568 -0.3632)
(0.09552 13.92 -0.3632)
(0.04048 14.272 -0.392)
(0.04256 14.688 -0.3568)
(-0.03952 14.944 -0.3584)
(-0.032 15.136 -0.368)
(-0.04592 15.408 -0.368)
(-0.13504 15.68 -0.3456)
(-0.1984 15.872 -0.376)
(-0.1984 15.888 -0.376)
(-0.1728 15.904 -0.3536)
(-0.13248 15.952 -0.36)
(-0.08016 16 -0.3584)
(-0.02064 15.952 -0.36)
(0.03232 16 -0.3392)
(0.7968 11.744 -0.2784)
(0.936 12.592 -0.3248)
(0.9696 12.72 -0.3184)
(1.064 12.512 -0.2992)
(0.888 11.504 -0.2256)
(0.6112 10.768 -0.07408)
(-0.15504 11.376 -0.272)
(-0.13552 13.36 -0.44)
(0.1888 13.824 -0.528)
(0.424 13.328 -0.3488)
(0.36 11.232 -0.10848)
(-0.4944 11.056 -0.1728)
(-0.7552 11.84 -0.2832)
(-0.9008 13.056 -0.4368)
(-0.8512 13.456 -0.5568)
(-0.6912 13.424 -0.5104)
(-0.6576 12.64 -0.4976)
(0.624 13.584 -0.2864)
(0.752 14.288 -0.232)
(0.9024 14.528 -0.2736)
(1.0144 14.624 -0.2544)
(0.9376 13.584 -0.09904)
(0.6656 12.384 0.13472)
(-0.07584 12.784 0.1888)
(-0.10816 14.576 0.0352)
(0.192 15.312 -0.04496)
(0.496 14.528 0.06096)
(0.224 12.656 0.2432)
(-0.5984 12.56 0.02128)
(-0.84 13.808 -0.06304)
(-0.8864 14.976 -0.3744)
(-0.7648 15.296 -0.4128)
(-0.5664 15.248 -0.4096)
(-0.4352 14.816 -0.456)
(0.5472 14.384 -0.208)
(0.7584 14.944 -0.13104)
(0.8896 15.392 -0.1472)
(0.9552 15.264 -0.10848)
(0.952 14.144 -0.009568)
(0.6784 12.912 0.14448)
(0.1128 13.024 0.3264)
(-0.02432 14.768 0.2448)
(0.1904 15.344 0.0856)
(0.3664 14.544 0.232)
(0.02544 13.248 0.312)
(-0.608 13.408 0.12288)
(-0.8432 14.336 -0.02256)
(-0.8672 15.504 -0.2112)
(-0.672 15.792 -0.2208)
(-0.5312 15.696 -0.2304)
(-0.4208 15.456 -0.24)
(0.504 15.072 -0.08976)
(0.7312 15.344 -0.05488)
(0.7808 15.584 -0.0224)
(0.8608 15.664 0.01952)
(0.92 14.608 0.11168)
(0.7376 13.456 0.3056)
(0.3072 13.376 0.48)
(0.09264 14.496 0.2784)
(0.1744 15.088 0.12704)
(0.1464 14.496 0.2992)
(-0.2288 13.2 0.4064)
(-0.7344 13.584 0.2576)
(-0.8032 14.816 -0.01744)
(-0.7456 15.776 -0.07152)
(-0.5712 15.84 -0.1472)
(-0.4864 15.744 -0.15088)
(-0.3824 15.6 -0.1)
(0.4944 15.344 0.007472)
(0.672 15.504 0.08688)
(0.712 15.712 0.05392)
(0.7792 15.744 0.1064)
(0.9104 15.088 0.2208)
(0.7696 13.984 0.3632)
(0.3648 13.6 0.4864)
(0.2352 14.672 0.4096)
(0.168 14.976 0.1728)
(0.04832 14.304 0.368)
(-0.3264 13.456 0.4736)
(-0.696 14.048 0.2912)
(-0.7312 15.04 0.13248)
(-0.608 15.776 -0.03664)
(-0.4992 15.84 -0.1648)
(-0.4368 15.776 -0.1616)
(-0.4032 15.648 -0.052)
(0.5008 15.536 0.11168)
(0.5648 15.696 0.10624)
(0.464 15.808 0.010512)
(0.4416 15.84 0.0624)
(0.536 15.712 0.3248)
(0.6064 15.376 0.5648)
(0.5344 14.864 0.6064)
(0.2912 14.784 0.6224)
(0.06976 15.136 0.632)
(-0.2608 14.752 0.6368)
(-0.504 14.8 0.5488)
(-0.5472 15.392 0.3888)
(-0.4208 15.792 0.2304)
(-0.2064 15.888 -0.0768)
(-0.2352 15.84 -0.2208)
(-0.3136 15.776 -0.208)
(-0.408 15.712 -0.07744)
(0.5008 15.744 0.1408)
(0.4656 15.728 0.09296)
(0.344 15.824 -0.02096)
(0.2448 15.84 -0.005696)
(0.2752 15.776 0.2544)
(0.3808 15.776 0.5488)
(0.4032 15.44 0.7888)
(0.2176 15.44 0.9904)
(-0.02128 15.424 0.9728)
(-0.2848 15.248 0.8256)
(-0.424 15.616 0.6192)
(-0.2928 15.68 0.3904)
(-0.08592 15.856 0.15632)
(-0.044 15.904 -0.08384)
(-0.11456 15.92 -0.1984)
(-0.2784 15.856 -0.1696)
(-0.408 15.776 -0.07888)
(0.4336 15.856 0.1648)
(0.336 15.84 0.1776)
(0.1664 15.904 0.07872)
(-0.01616 15.984 0.04048)
(-0.2352 15.824 0.1304)
(-0.3344 15.808 0.36)
(-0.2704 15.824 0.7056)
(-0.10848 15.808 1.0576)
(0.04752 15.76 1.1136)
(0.2512 15.824 0.9408)
(0.384 15.872 0.5888)
(0.4032 15.92 0.2752)
(0.3408 15.968 0.13456)
(0.192 16 -0.02496)
(-0.01632 16 -0.08112)
(-0.2064 15.936 -0.07296)
(-0.4368 15.744 0.04912)
(0.3664 15.984 0.2176)
(0.2784 15.952 0.208)
(0.1872 16 0.1808)
(0.0608 16 0.1792)
(-0.03024 16 0.2384)
(-0.016 16 0.3168)
(-0.002224 16 0.3632)
(0.03264 16 0.3872)
(0.11648 16 0.4)
(0.1712 16.16 0.3728)
(0.1856 16 0.3152)
(0.1984 16.16 0.2896)
(0.184 16.16 0.2256)
(0.1088 16 0.13568)
(-0.03024 16 0.04912)
(-0.1984 16 0.07936)
(-0.3488 15.84 0.07456)
(0.3456 16 0.2256)
(0.24 16 0.2192)
(0.1712 16 0.184)
(0.10192 16 0.1856)
(0.08064 16.16 0.1936)
(0.06 16.16 0.1984)
(0.05264 16.16 0.2224)
(0.05248 16.16 0.208)
(0.0592 16.16 0.1888)
(0.07312 16.16 0.2032)
(0.07936 16.16 0.1872)
(0.07328 16.16 0.1664)
(0.0248 16.16 0.1632)
(0.010848 16.16 0.12576)
(-0.07232 16.16 0.09488)
(-0.1632 16 0.09504)
(-0.2976 16 0.11024)
(0.344 16.16 0.2224)
(0.24 16.16 0.192)
(0.176 16.16 0.14256)
(0.10816 16.16 0.13216)
(0.07312 16.16 0.1096)
(0.05856 16.16 0.13552)
(0.04528 16.16 0.12288)
(0.05184 16.16 0.11216)
(0.04512 16.16 0.1168)
(0.02432 16.16 0.13712)
(0.003616 16.16 0.11392)
(-0.003472 16.16 0.1224)
(-0.01712 16.16 0.11184)
(-0.07936 16.16 0.09808)
(-0.11408 16.16 0.1016)
(-0.2192 16.16 0.10544)
(-0.368 16 0.0864)
(0.3488 16.16 0.2064)
(0.2736 16.16 0.2064)
(0.1824 16.16 0.13856)
(0.14144 16.16 0.11952)
(0.09296 16.16 0.09536)
(0.0648 16.32 0.06864)
(0.05888 16.16 0.07584)
(0.04464 16.16 0.07808)
(0.03088 16.16 0.06944)
(0.01712 16.16 0.0608)
(-0.010592 16.32 0.07408)
(-0.02432 16.16 0.064)
(-0.03808 16.16 0.07104)
(-0.07264 16.16 0.04992)
(-0.13504 16.16 0.064)
(-0.14896 16.16 0.09136)
(-0.296 16 0.10048)
(0.304 16.32 0.1024)
(0.2288 16.32 0.1104)
(0.176 16.16 0.09632)
(0.12064 16.16 0.04688)
(0.07232 16.16 0.02144)
(0.05872 16.16 0.04128)
(0.04432 16.32 0.0009248)
(0.02352 16.32 0.015152)
(0.00992 16.32 0.005792)
(-0.0176 16.32 0.02512)
(-0.03824 16.32 0.0216)
(-0.04512 16.32 0.007056)
(-0.05888 16.32 0.012624)
(-0.10032 16.16 0.013648)
(-0.176 16.16 0.008448)
(-0.2544 16.16 0.011872)
(-0.3168 16 0.03328)
)

