/*--------------------------------*- C++ -*----------------------------------*\
| =========                 |                                                 |
| \\      /  F ield         | OpenFOAM: The Open Source CFD Toolbox           |
|  \\    /   O peration     | Version:  2.2.2                                 |
|   \\  /    A nd           | Web:      www.OpenFOAM.org                      |
|    \\/     M anipulation  |                                                 |
\*---------------------------------------------------------------------------*/
FoamFile
{
    version     2.0;
    format      ascii;
    class       scalarAverageField;
    object      values;
}
// * * * * * * * * * * * * * * * * * * * * * * * * * * * * * * * * * * * * * //

// Average
0

// Data on points
42
(
// min
9.3069306930693063
9.3069306930693063
9.2237442922374431
9.8387096774193541
11.428571428571429
14.58100558659218
20.720720720720724
10.082796688132476
31.489550911516229
131.05882352941177
135.93650793650792
16.754901960784316
20.924528301886792
25.46075085324232
28.097165991902834
28.764940239043828
26.35971223021583
40.783132530120483
68.379888268156421
152.23557692307693
0
// max
9.3069306930693063
9.3069306930693063
9.2237442922374431
9.8387096774193541
11.428571428571429
14.58100558659218
20.720720720720724
10.082796688132476
31.489550911516229
131.05882352941177
135.93650793650792
16.754901960784316
20.924528301886792
25.46075085324232
28.097165991902834
28.764940239043828
26.35971223021583
40.783132530120483
68.379888268156421
152.23557692307693
0
)

// ************************************************************************* //
