/*--------------------------------*- C++ -*----------------------------------*\
| =========                 |                                                 |
| \\      /  F ield         | OpenFOAM: The Open Source CFD Toolbox           |
|  \\    /   O peration     | Version:  2.2.2                                 |
|   \\  /    A nd           | Web:      www.OpenFOAM.org                      |
|    \\/     M anipulation  |                                                 |
\*---------------------------------------------------------------------------*/
FoamFile
{
    version     2.0;
    format      ascii;
    class       scalarAverageField;
    object      values;
}
// * * * * * * * * * * * * * * * * * * * * * * * * * * * * * * * * * * * * * //

// Average
0

// Data on points
42
(
// min
0.010100000000000001
0.010100000000000001
0.010950000000000001
0.012400000000000001
0.014700000000000001
0.017899999999999999
0.022199999999999998
0.1087
0.11244999999999999
0.085000000000000006
0.063
0.10199999999999999
0.053000000000000005
0.0293
0.0247
0.025099999999999997
0.034749999999999996
0.0332
0.035799999999999998
0.041599999999999998
0.0
// max
0.010100000000000001
0.010100000000000001
0.010950000000000001
0.012400000000000001
0.014700000000000001
0.017899999999999999
0.022199999999999998
0.1087
0.11244999999999999
0.085000000000000006
0.063
0.10199999999999999
0.053000000000000005
0.0293
0.0247
0.025099999999999997
0.034749999999999996
0.0332
0.035799999999999998
0.041599999999999998
0.0
)

// ************************************************************************* //
