/*--------------------------------*- C++ -*----------------------------------*\
| =========                 |                                                 |
| \\      /  F ield         | OpenFOAM: The Open Source CFD Toolbox           |
|  \\    /   O peration     | Version:  2.2.2                                 |
|   \\  /    A nd           | Web:      www.OpenFOAM.org                      |
|    \\/     M anipulation  |                                                 |
\*---------------------------------------------------------------------------*/
FoamFile
{
    version     2.0;
    format      ascii;
    class       vectorAverageField;
    object      values;
}
// * * * * * * * * * * * * * * * * * * * * * * * * * * * * * * * * * * * * * //

// Average
(0 0 0)

// Data on points
42
(
// min
( 8.750E-01 0.000E+00 0.000E+00)
( 8.750E-01 0.000E+00 0.000E+00)
( 8.750E-01 5.000E-03 0.000E+00)
( 8.630E-01 2.000E-02 0.000E+00)
( 8.280E-01 3.500E-02 0.000E+00)
( 7.700E-01 5.000E-02 0.000E+00)
( 6.070E-01 5.500E-02 0.000E+00)
( 4.670E-01 4.500E-02 0.000E+00)
( 2.920E-01 1.000E-02 0.000E+00)
( 1.170E-01 0.000E+00 0.000E+00)
( 3.500E-01 4.000E-02 4.200E-01)
( 1.178E+00 1.280E-01 8.200E-01)
( 1.680E+00 2.170E-01 9.900E-01)
( 1.925E+00 2.500E-01 1.020E+00)
( 1.950E+00 2.500E-01 1.000E+00)
( 1.940E+00 2.300E-01 9.250E-01)
( 1.910E+00 2.000E-01 8.300E-01)
( 1.867E+00 1.800E-01 7.200E-01)
( 1.820E+00 1.500E-01 6.600E-01)
( 1.170E+00 8.000E-02 3.000E-01)
( 0.000E+00 0.000E+00 0.000E+00)
// max
( 8.750E-01 0.000E+00 0.000E+00)
( 8.750E-01 0.000E+00 0.000E+00)
( 8.750E-01 5.000E-03 0.000E+00)
( 8.630E-01 2.000E-02 0.000E+00)
( 8.280E-01 3.500E-02 0.000E+00)
( 7.700E-01 5.000E-02 0.000E+00)
( 6.070E-01 5.500E-02 0.000E+00)
( 4.670E-01 4.500E-02 0.000E+00)
( 2.920E-01 1.000E-02 0.000E+00)
( 1.170E-01 0.000E+00 0.000E+00)
( 3.500E-01 4.000E-02 4.200E-01)
( 1.178E+00 1.280E-01 8.200E-01)
( 1.680E+00 2.170E-01 9.900E-01)
( 1.925E+00 2.500E-01 1.020E+00)
( 1.950E+00 2.500E-01 1.000E+00)
( 1.940E+00 2.300E-01 9.250E-01)
( 1.910E+00 2.000E-01 8.300E-01)
( 1.867E+00 1.800E-01 7.200E-01)
( 1.820E+00 1.500E-01 6.600E-01)
( 1.170E+00 8.000E-02 3.000E-01)
( 0.000E+00 0.000E+00 0.000E+00)
)

// ************************************************************************* //
