/*--------------------------------*- C++ -*----------------------------------*\
| =========                 |                                                 |
| \\      /  F ield         | OpenFOAM Extend Project: Open source CFD        |
|  \\    /   O peration     | Version:  1.6-ext                               |
|   \\  /    A nd           | Web:      www.extend-project.de                 |
|    \\/     M anipulation  |                                                 |
\*---------------------------------------------------------------------------*/
FoamFile
{
    version     2.0;
    format      ascii;
    class       volVectorField;
    location    "0";
    object      U;
}
// * * * * * * * * * * * * * * * * * * * * * * * * * * * * * * * * * * * * * //

dimensions      [0 1 -1 0 0 0 0];

internalField   uniform (0 0 0);

boundaryField
{
    inlet
    {
        type            timeVaryingMappedFixedValue;
        setAverage      0;
	offset          (0 0 0);
        perturb         1e-05;
        value           uniform (0 0 0);
    }
    outlet
    {
        type            zeroGradient;
    }
    slip
    {
        type            slip;
    }
    plate
    {
        type            fixedValue;
        value           uniform (0 0 0);
    }
    cube
    {
        type            fixedValue;
        value           uniform (0 0 0);
    }
    sym
    {
        type            symmetryPlane;
    }
}


// ************************************************************************* //
