/*--------------------------------*- C++ -*----------------------------------*\
| =========                 |                                                 |
| \\      /  F ield         | OpenFOAM Extend Project: Open Source CFD        |
|  \\    /   O peration     | Version:  1.6-ext                               |
|   \\  /    A nd           | Web:      www.extend-project.de                 |
|    \\/     M anipulation  |                                                 |
\*---------------------------------------------------------------------------*/
FoamFile
{
    version     2.0;
    format      ascii;
    class       scalarAverageField;
    object      values;
}
// * * * * * * * * * * * * * * * * * * * * * * * * * * * * * * * * * * * * * //

// Average
0

// Data on points
50
(
// minY
4.37781
4.37781
6.1672
6.05466
5.94212
5.26688
4.4791
3.69132
2.57717
2.02572
1.60932
1.33923
0.754019
1.21543
1.66559
2.08199
3.19614
3.97267
4.76045
5.43569
5.77331
6.11093
4.64791
4.09646
4.09646
// maxY 
4.37781
4.37781
6.1672
6.05466
5.94212
5.26688
4.4791
3.69132
2.57717
2.02572
1.60932
1.33923
0.754019
1.21543
1.66559
2.08199
3.19614
3.97267
4.76045
5.43569
5.77331
6.11093
4.64791
4.09646
4.09646
)

// * * * * * * * * * * * * * * * * * * * * * * * * * * * * * * * * * * * * * //
