/*--------------------------------*- C++ -*----------------------------------*\
| =========                 |                                                 |
| \\      /  F ield         | OpenFOAM Extend Project: Open Source CFD        |
|  \\    /   O peration     | Version:  1.6-ext                               |
|   \\  /    A nd           | Web:      www.extend-project.de                 |
|    \\/     M anipulation  |                                                 |
\*---------------------------------------------------------------------------*/
FoamFile
{
    version     2.0;
    format      ascii;
    class       symmTensorAverageField;
    object      values;
}
// * * * * * * * * * * * * * * * * * * * * * * * * * * * * * * * * * * * * * //

// Average
(0 0 0 0 0 0)

// Data on points
50
(
// minY
(4.37781 0 0 2.188905 0 2.188905)
(4.37781 0 0 2.188905 0 2.188905)
(6.1672 0 0 3.0836 0 3.0836)
(6.05466 0 0 3.02733 0 3.02733)
(5.94212 0 0 2.97106 0 2.97106)
(5.26688 0 0 2.63344 0 2.63344)
(4.4791 0 0 2.23955 0 2.23955)
(3.69132 0 0 1.84566 0 1.84566)
(2.57717 0 0 1.288585 0 1.288585)
(2.02572 0 0 1.01286 0 1.01286)
(1.60932 0 0 0.80466 0 0.80466)
(1.33923 0 0 0.669615 0 0.669615)
(0.754019 0 0 0.3770095 0 0.3770095)
(1.21543 0 0 0.607715 0 0.607715)
(1.66559 0 0 0.832795 0 0.832795)
(2.08199 0 0 1.040995 0 1.040995)
(3.19614 0 0 1.59807 0 1.59807)
(3.97267 0 0 1.986335 0 1.986335)
(4.76045 0 0 2.380225 0 2.380225)
(5.43569 0 0 2.717845 0 2.717845)
(5.77331 0 0 2.886655 0 2.886655)
(6.11093 0 0 3.055465 0 3.055465)
(4.64791 0 0 2.323955 0 2.323955)
(4.09646 0 0 2.04823 0 2.04823)
(4.09646 0 0 2.04823 0 2.04823)
// maxY
(4.37781 0 0 2.188905 0 2.188905)
(4.37781 0 0 2.188905 0 2.188905)
(6.1672 0 0 3.0836 0 3.0836)
(6.05466 0 0 3.02733 0 3.02733)
(5.94212 0 0 2.97106 0 2.97106)
(5.26688 0 0 2.63344 0 2.63344)
(4.4791 0 0 2.23955 0 2.23955)
(3.69132 0 0 1.84566 0 1.84566)
(2.57717 0 0 1.288585 0 1.288585)
(2.02572 0 0 1.01286 0 1.01286)
(1.60932 0 0 0.80466 0 0.80466)
(1.33923 0 0 0.669615 0 0.669615)
(0.754019 0 0 0.3770095 0 0.3770095)
(1.21543 0 0 0.607715 0 0.607715)
(1.66559 0 0 0.832795 0 0.832795)
(2.08199 0 0 1.040995 0 1.040995)
(3.19614 0 0 1.59807 0 1.59807)
(3.97267 0 0 1.986335 0 1.986335)
(4.76045 0 0 2.380225 0 2.380225)
(5.43569 0 0 2.717845 0 2.717845)
(5.77331 0 0 2.886655 0 2.886655)
(6.11093 0 0 3.055465 0 3.055465)
(4.64791 0 0 2.323955 0 2.323955)
(4.09646 0 0 2.04823 0 2.04823)
(4.09646 0 0 2.04823 0 2.04823)
)

// * * * * * * * * * * * * * * * * * * * * * * * * * * * * * * * * * * * * * //
