/*--------------------------------*- C++ -*----------------------------------*\
| =========                 |                                                 |
| \\      /  F ield         | OpenFOAM: The Open Source CFD Toolbox           |
|  \\    /   O peration     | Version:  2.2.2                                 |
|   \\  /    A nd           | Web:      www.OpenFOAM.org                      |
|    \\/     M anipulation  |                                                 |
\*---------------------------------------------------------------------------*/
FoamFile
{
    version     2.0;
    format      ascii;
    class       scalarAverageField;
    object      values;
}
// * * * * * * * * * * * * * * * * * * * * * * * * * * * * * * * * * * * * * //

// Average
0

// Data on points
66
(
// min
26.163097540757118
26.163097540757118
26.163097540757118
26.163097540757118
26.163097540757118
24.016808769792938
19.329084560349671
14.154450862230751
12.697187776793623
9.6405729771583442
7.4057951733496541
6.5746965227063878
5.7807717792572486
4.488527325823946
3.0849791608780226
2.1331930462230089
0.12860908110698452
2.1331930462230089
3.0849791608780226
4.488527325823946
5.7807717792572486
6.5746965227063878
7.4057951733496541
9.6405729771583442
12.697187776793623
14.154450862230751
19.329084560349671
24.016808769792938
26.163097540757118
26.163097540757118
26.163097540757118
26.163097540757118
26.163097540757118
// max
26.163097540757118
26.163097540757118
26.163097540757118
26.163097540757118
26.163097540757118
24.016808769792938
19.329084560349671
14.154450862230751
12.697187776793623
9.6405729771583442
7.4057951733496541
6.5746965227063878
5.7807717792572486
4.488527325823946
3.0849791608780226
2.1331930462230089
0.12860908110698452
2.1331930462230089
3.0849791608780226
4.488527325823946
5.7807717792572486
6.5746965227063878
7.4057951733496541
9.6405729771583442
12.697187776793623
14.154450862230751
19.329084560349671
24.016808769792938
26.163097540757118
26.163097540757118
26.163097540757118
26.163097540757118
26.163097540757118
)

// ************************************************************************* //
