/*--------------------------------*- C++ -*----------------------------------*\
| =========                 |                                                 |
| \\      /  F ield         | OpenFOAM: The Open Source CFD Toolbox           |
|  \\    /   O peration     | Version:  4.0                                   |
|   \\  /    A nd           | Web:      www.OpenFOAM.org                      |
|    \\/     M anipulation  |                                                 |
\*---------------------------------------------------------------------------*/
FoamFile
{
    version     2.0;
    format      ascii;
    class       dictionary;
    object      sampleDict;
}
// * * * * * * * * * * * * * * * * * * * * * * * * * * * * * * * * * * * * * //

type sets;
libs ("libsampling.so");

interpolationScheme cellPoint;

setFormat raw;

sets
(
    x_-20mm
    {
        type            face;
        axis            xyz;
        start           (-0.020 0    0.005);
        end             (-0.020 0.17 0.005);
    }
    x_-50mm
    {
        type            face;
        axis            xyz;
        start           (-0.050 0    0.005);
        end             (-0.050 0.17 0.005);
    }
    x_-300mm
    {
        type            face;
        axis            xyz;
        start           (-0.300 0    0.005);
        end             (-0.300 0.17 0.005);
    }
    x_0mm
    {
        type            face;
        axis            xyz;
        start           (0 0    0.005);
        end             (0 0.17 0.005);
    }
    x_30mm
    {
        type            face;
        axis            xyz;
        start           (0.030 0    0.005);
        end             (0.030 0.17 0.005);
    }
    x_50mm
    {
        type            face;
        axis            xyz;
        start           (0.050 0    0.005);
        end             (0.050 0.17 0.005);
    }
    x_70mm
    {
        type            face;
        axis            xyz;
        start           (0.070 0    0.005);
        end             (0.070 0.17 0.005);
    }
    x_90mm
    {
        type            face;
        axis            xyz;
        start           (0.090 0    0.005);
        end             (0.090 0.17 0.005);
    }
    x_120mm
    {
        type            face;
        axis            xyz;
        start           (0.120 0    0.005);
        end             (0.120 0.17 0.005);
    }
    x_134mm
    {
        type            face;
        axis            xyz;
        start           (0.134 0    0.005);
        end             (0.134 0.17 0.005);
    }
    x_150mm
    {
        type            face;
        axis            xyz;
        start           (0.150 0    0.005);
        end             (0.150 0.17 0.005);
    }
    x_185mm
    {
        type            face;
        axis            xyz;
        start           (0.185 0    0.005);
        end             (0.185 0.17 0.005);
    }
    x_225mm
    {
        type            face;
        axis            xyz;
        start           (0.225 0    0.005);
        end             (0.225 0.17 0.005);
    }
    x_300mm
    {
        type            face;
        axis            xyz;
        start           (0.300 0    0.005);
        end             (0.300 0.17 0.005);
    }
    x_500mm
    {
        type            face;
        axis            xyz;
        start           (0.500 0    0.005);
        end             (0.500 0.17 0.005);
    }
);

fields
( 
    U
);

// ************************************************************************* //
