/*--------------------------------*- C++ -*----------------------------------*\
| =========                 |                                                 |
| \\      /  F ield         | OpenFOAM: The Open Source CFD Toolbox           |
|  \\    /   O peration     | Version:  4.0                                   |
|   \\  /    A nd           | Web:      www.OpenFOAM.org                      |
|    \\/     M anipulation  |                                                 |
\*---------------------------------------------------------------------------*/
FoamFile
{
    version     2.0;
    format      ascii;
    class       scalarAverageField;
    object      values;
}
// * * * * * * * * * * * * * * * * * * * * * * * * * * * * * * * * * * * * * //

// Average
0

// Data on points
62
(
// min
0.001
12091.24
1805.8033333333337
897.9259999999998
505.82099999999986
305.32599999999996
209.49525000000014
131.7420000000002
84.72100000000002
62.95549999999987
35.488000000000014
17.85300000000005
7.837000000000004
0.992950000000004
0.992950000000004
0.992950000000004
0.7170999999999853
3.7512000000000323
10.845000000000026
25.71599999999983
37.28699999999991
60.75425000000008
85.61699999999995
107.19000000000015
175.0904999999999
232.40699999999998
310.16225000000014
555.7404999999995
974.5243333333331
8119.191999999994
8119.191999999994
// max
0.001
12091.24
1805.8033333333337
897.9259999999998
505.82099999999986
305.32599999999996
209.49525000000014
131.7420000000002
84.72100000000002
62.95549999999987
35.488000000000014
17.85300000000005
7.837000000000004
0.992950000000004
0.992950000000004
0.992950000000004
0.7170999999999853
3.7512000000000323
10.845000000000026
25.71599999999983
37.28699999999991
60.75425000000008
85.61699999999995
107.19000000000015
175.0904999999999
232.40699999999998
310.16225000000014
555.7404999999995
974.5243333333331
8119.191999999994
8119.191999999994
)

// ************************************************************************* //
