/*--------------------------------*- C++ -*----------------------------------*\
| =========                 |                                                 |
| \\      /  F ield         | OpenFOAM: The Open Source CFD Toolbox           |
|  \\    /   O peration     | Version:  4.0                                   |
|   \\  /    A nd           | Web:      www.OpenFOAM.org                      |
|    \\/     M anipulation  |                                                 |
\*---------------------------------------------------------------------------*/
FoamFile
{
    version     2.0;
    format      ascii;
    class       scalarAverageField;
    object      values;
}
// * * * * * * * * * * * * * * * * * * * * * * * * * * * * * * * * * * * * * //

// Average
0

// Data on points
62
(
// min
0
576.7235837552096
159.13889415350937
109.33815272473396
81.90729518548463
63.576073444621876
58.88877573585872
50.64203731737555
43.890652806280926
42.939110662543186
39.72103850189544
28.00945628613915
18.441923167140637
3.198690719304682
3.5266968590324055
3.315559027477214
2.1929083862598966
10.70769158046102
25.127029355158932
42.96331782868649
42.341723394217674
52.68917672984122
44.77392287075348
46.6058550189115
53.36814315826813
57.9933183703184
61.49041561429455
81.9749946547554
115.32701590870697
614.9994974226906
0
// max
0
576.7235837552096
159.13889415350937
109.33815272473396
81.90729518548463
63.576073444621876
58.88877573585872
50.64203731737555
43.890652806280926
42.939110662543186
39.72103850189544
28.00945628613915
18.441923167140637
3.198690719304682
3.5266968590324055
3.315559027477214
2.1929083862598966
10.70769158046102
25.127029355158932
42.96331782868649
42.341723394217674
52.68917672984122
44.77392287075348
46.6058550189115
53.36814315826813
57.9933183703184
61.49041561429455
81.9749946547554
115.32701590870697
614.9994974226906
0
)

// ************************************************************************* //
