/*--------------------------------*- C++ -*----------------------------------*\
| =========                 |                                                 |
| \\      /  F ield         | OpenFOAM: The Open Source CFD Toolbox           |
|  \\    /   O peration     | Version:  4.0                                   |
|   \\  /    A nd           | Web:      www.OpenFOAM.org                      |
|    \\/     M anipulation  |                                                 |
\*---------------------------------------------------------------------------*/
FoamFile
{
    version     2.0;
    format      ascii;
    class       vectorAverageField;
    object      values;
}
// * * * * * * * * * * * * * * * * * * * * * * * * * * * * * * * * * * * * * //

// Average
(0 0 0)

// Data on points
62
(
// min
(0 0 0)
(12.37 0 0)
(13.93 0 0)
(15.42 0 0)
(17.11 0 0)
(18.2 0 0)
(19.04 0 0)
(19.73 0 0)
(20.21 0 0)
(20.64 0 0)
(21.04 0 0)
(21.28 0 0)
(21.48 0 0)
(21.62 0 0)
(21.62 0 0)
(21.7 0 0)
(21.7 0 0)
(21.68 0 0)
(21.58 0 0)
(21.38 0 0)
(21.1 0 0)
(20.84 0 0)
(20.37 0 0)
(20.03 0 0)
(19.47 0 0)
(18.8 0 0)
(18.0 0 0)
(17.01 0 0)
(15.26 0 0)
(13.52 0 0)
(0 0 0)
// max
(0 0 0)
(12.37 0 0)
(13.93 0 0)
(15.42 0 0)
(17.11 0 0)
(18.2 0 0)
(19.04 0 0)
(19.73 0 0)
(20.21 0 0)
(20.64 0 0)
(21.04 0 0)
(21.28 0 0)
(21.48 0 0)
(21.62 0 0)
(21.62 0 0)
(21.7 0 0)
(21.7 0 0)
(21.68 0 0)
(21.58 0 0)
(21.38 0 0)
(21.1 0 0)
(20.84 0 0)
(20.37 0 0)
(20.03 0 0)
(19.47 0 0)
(18.8 0 0)
(18.0 0 0)
(17.01 0 0)
(15.26 0 0)
(13.52 0 0)
(0 0 0)
)

// ************************************************************************* //
