/*--------------------------------*- C++ -*----------------------------------*\
| =========                 |                                                 |
| \\      /  F ield         | OpenFOAM Extend Project: Open source CFD        |
|  \\    /   O peration     | Version:  1.6-ext                               |
|   \\  /    A nd           | Web:      www.extend-project.de                 |
|    \\/     M anipulation  |                                                 |
\*---------------------------------------------------------------------------*/
FoamFile
{
    version     2.0;
    format      ascii;
    class       volScalarField;
    location    "0";
    object      omega;
}
// * * * * * * * * * * * * * * * * * * * * * * * * * * * * * * * * * * * * * //

dimensions      [0 0 -1 0 0 0 0];

internalField   uniform 459.99;

boundaryField
{
    inlet
    {
        type            timeVaryingMappedFixedValue;
        setAverage      0;
	offset          0;
        perturb         1e-05;
        value           $internalField;
    }

    outlet
    {
        type            zeroGradient;
    }

    plate
    {
        type            omegaWallFunction;
        value           $internalField;
    }

    cube
    {
        type            omegaWallFunction;
        value           $internalField;
    }

    slip
    {
        type            slip;
    }

    sym
    {
        type            symmetryPlane;
    }
}


// ************************************************************************* //
