/*--------------------------------*- C++ -*----------------------------------*| =========                 |                                                 |
| \      /  F ield         | OpenFOAM: The Open Source CFD Toolbox           |
|  \    /   O peration     | Version:  2.2.2                                 |
|   \  /    A nd           | Web:      www.OpenFOAM.org                      |
|    \/     M anipulation  |                                                 |
\*---------------------------------------------------------------------------*/
FoamFile
{
    version     2.0;
    format      ascii;
    class       scalarAverageField;
    object      values;
}
// * * * * * * * * * * * * * * * * * * * * * * * * * * * * * * * * * * * * * //

// Average
0

// Data on points
62
(
// min
0.0
20.96539892
11.347341219999999
8.212375804999999
6.175530504999999
4.802530000000001
3.5574733449999996
2.601435625
1.9302743200000003
1.4661575199999999
0.8934308199999998
0.63739188
0.42495568000000006
0.310423885
0.28155241
0.299481925
0.32700864499999993
0.35032761
0.43160693
0.598557125
0.8806207450000002
1.15306888
1.9122068050000003
2.2999256200000002
3.280805545
4.007478905
5.044074705
6.779390499999999
8.450095805
13.201949
0.0
// max
0.0
20.96539892
11.347341219999999
8.212375804999999
6.175530504999999
4.802530000000001
3.5574733449999996
2.601435625
1.9302743200000003
1.4661575199999999
0.8934308199999998
0.63739188
0.42495568000000006
0.310423885
0.28155241
0.299481925
0.32700864499999993
0.35032761
0.43160693
0.598557125
0.8806207450000002
1.15306888
1.9122068050000003
2.2999256200000002
3.280805545
4.007478905
5.044074705
6.779390499999999
8.450095805
13.201949
0.0
)

// ************************************************************************* //
