/*--------------------------------*- C++ -*----------------------------------*\
| =========                 |                                                 |
| \\      /  F ield         | OpenFOAM: The Open Source CFD Toolbox           |
|  \\    /   O peration     | Version:  4.0                                   |
|   \\  /    A nd           | Web:      www.OpenFOAM.org                      |
|    \\/     M anipulation  |                                                 |
\*---------------------------------------------------------------------------*/
FoamFile
{
    version     2.0;
    format      ascii;
    class       scalarAverageField;
    object      values;
}
// * * * * * * * * * * * * * * * * * * * * * * * * * * * * * * * * * * * * * //

// Average
0

// Data on points
328
(
// min_z
7.44E-04
7.44E-04
7.44E-04
5.23E-03
7.71E-03
7.63E-03
6.79E-03
4.91E-03
3.93E-03
3.53E-03
2.76E-03
1.91E-03
2.07E-03
1.50E-03
1.41E-03
1.41E-03
9.95E-04
1.08E-03
1.23E-03
1.16E-03
1.00E-03
9.70E-04
7.84E-04
5.73E-04
8.40E-04
7.70E-04
8.11E-04
9.60E-04
4.99E-04
2.57E-04
7.20E-04
5.92E-04
4.51E-04
6.60E-04
5.51E-04
3.85E-04
2.08E-04
3.19E-04
6.55E-04
6.70E-04
2.83E-04
1.92E-04
4.39E-04
5.04E-04
2.34E-04
2.88E-04
3.53E-04
1.67E-04
1.90E-04
1.97E-04
2.55E-04
3.29E-04
1.93E-04
1.36E-04
1.61E-04
2.17E-04
1.23E-04
5.90E-05
1.60E-04
1.06E-04
6.86E-05
9.12E-05
1.15E-04
1.04E-04
6.20E-05
7.62E-05
1.07E-04
5.58E-05
5.33E-05
4.21E-05
4.21E-05
3.56E-05
3.19E-05
3.19E-05
1.36E-05
1.63E-05
4.96E-06
1.32E-05
4.40E-06
4.40E-06
4.40E-06
1.65E-06
1.65E-06
1.65E-06
1.65E-06
1.11E-05
6.57E-06
1.03E-05
3.02E-05
3.33E-05
2.30E-05
2.16E-05
3.99E-05
9.20E-05
3.38E-05
1.65E-05
1.25E-04
1.21E-04
8.00E-05
1.17E-04
1.61E-04
7.68E-05
1.08E-04
1.54E-04
1.71E-04
2.94E-04
2.62E-04
1.76E-04
1.68E-04
2.12E-04
3.09E-04
4.24E-04
1.53E-04
1.53E-04
3.24E-04
3.07E-04
2.38E-04
3.63E-04
3.63E-04
3.90E-04
3.55E-04
2.82E-04
5.92E-04
4.38E-04
5.18E-04
4.87E-04
5.43E-04
6.16E-04
3.78E-04
4.56E-04
5.90E-04
8.00E-04
1.04E-03
1.09E-03
5.34E-04
3.58E-04
6.27E-04
1.13E-03
9.35E-04
8.96E-04
8.33E-04
1.05E-03
1.56E-03
8.12E-04
8.45E-04
1.35E-03
1.27E-03
1.19E-03
1.24E-03
1.84E-03
1.99E-03
2.23E-03
2.33E-03
2.61E-03
4.83E-03
5.16E-03
4.08E-03
5.53E-03
1.06E-02
1.16E-02
6.00E-03
6.97E-04
6.97E-04
6.97E-04
// max_z
7.44E-04
7.44E-04
7.44E-04
5.23E-03
7.71E-03
7.63E-03
6.79E-03
4.91E-03
3.93E-03
3.53E-03
2.76E-03
1.91E-03
2.07E-03
1.50E-03
1.41E-03
1.41E-03
9.95E-04
1.08E-03
1.23E-03
1.16E-03
1.00E-03
9.70E-04
7.84E-04
5.73E-04
8.40E-04
7.70E-04
8.11E-04
9.60E-04
4.99E-04
2.57E-04
7.20E-04
5.92E-04
4.51E-04
6.60E-04
5.51E-04
3.85E-04
2.08E-04
3.19E-04
6.55E-04
6.70E-04
2.83E-04
1.92E-04
4.39E-04
5.04E-04
2.34E-04
2.88E-04
3.53E-04
1.67E-04
1.90E-04
1.97E-04
2.55E-04
3.29E-04
1.93E-04
1.36E-04
1.61E-04
2.17E-04
1.23E-04
5.90E-05
1.60E-04
1.06E-04
6.86E-05
9.12E-05
1.15E-04
1.04E-04
6.20E-05
7.62E-05
1.07E-04
5.58E-05
5.33E-05
4.21E-05
4.21E-05
3.56E-05
3.19E-05
3.19E-05
1.36E-05
1.63E-05
4.96E-06
1.32E-05
4.40E-06
4.40E-06
4.40E-06
1.65E-06
1.65E-06
1.65E-06
1.65E-06
1.11E-05
6.57E-06
1.03E-05
3.02E-05
3.33E-05
2.30E-05
2.16E-05
3.99E-05
9.20E-05
3.38E-05
1.65E-05
1.25E-04
1.21E-04
8.00E-05
1.17E-04
1.61E-04
7.68E-05
1.08E-04
1.54E-04
1.71E-04
2.94E-04
2.62E-04
1.76E-04
1.68E-04
2.12E-04
3.09E-04
4.24E-04
1.53E-04
1.53E-04
3.24E-04
3.07E-04
2.38E-04
3.63E-04
3.63E-04
3.90E-04
3.55E-04
2.82E-04
5.92E-04
4.38E-04
5.18E-04
4.87E-04
5.43E-04
6.16E-04
3.78E-04
4.56E-04
5.90E-04
8.00E-04
1.04E-03
1.09E-03
5.34E-04
3.58E-04
6.27E-04
1.13E-03
9.35E-04
8.96E-04
8.33E-04
1.05E-03
1.56E-03
8.12E-04
8.45E-04
1.35E-03
1.27E-03
1.19E-03
1.24E-03
1.84E-03
1.99E-03
2.23E-03
2.33E-03
2.61E-03
4.83E-03
5.16E-03
4.08E-03
5.53E-03
1.06E-02
1.16E-02
6.00E-03
6.97E-04
6.97E-04
6.97E-04
)

// ************************************************************************* //
