/*--------------------------------*- C++ -*----------------------------------*\
| =========                 |                                                 |
| \\      /  F ield         | OpenFOAM: The Open Source CFD Toolbox           |
|  \\    /   O peration     | Version:  4.0                                   |
|   \\  /    A nd           | Web:      www.OpenFOAM.org                      |
|    \\/     M anipulation  |                                                 |
\*---------------------------------------------------------------------------*/
FoamFile
{
    version     2.0;
    format      ascii;
    class       vectorAverageField;
    object      values;
}
// * * * * * * * * * * * * * * * * * * * * * * * * * * * * * * * * * * * * * //

// Average
(0 0 0)

// Data on points
328
(
// min_z
(0.000000e+00 0 0)
(2.070000e-01 0 0)
(2.310000e-01 0 0)
(3.640000e-01 0 0)
(4.770000e-01 0 0)
(5.550000e-01 0 0)
(6.110000e-01 0 0)
(6.560000e-01 0 0)
(6.840000e-01 0 0)
(7.070000e-01 0 0)
(7.280000e-01 0 0)
(7.420000e-01 0 0)
(7.530000e-01 0 0)
(7.660000e-01 0 0)
(7.730000e-01 0 0)
(7.840000e-01 0 0)
(7.920000e-01 0 0)
(7.960000e-01 0 0)
(8.050000e-01 0 0)
(8.120000e-01 0 0)
(8.200000e-01 0 0)
(8.260000e-01 0 0)
(8.330000e-01 0 0)
(8.370000e-01 0 0)
(8.410000e-01 0 0)
(8.490000e-01 0 0)
(8.520000e-01 0 0)
(8.600000e-01 0 0)
(8.670000e-01 0 0)
(8.680000e-01 0 0)
(8.710000e-01 0 0)
(8.790000e-01 0 0)
(8.810000e-01 0 0)
(8.870000e-01 0 0)
(8.920000e-01 0 0)
(8.960000e-01 0 0)
(8.980000e-01 0 0)
(9.000000e-01 0 0)
(9.040000e-01 0 0)
(9.110000e-01 0 0)
(9.160000e-01 0 0)
(9.170000e-01 0 0)
(9.200000e-01 0 0)
(9.260000e-01 0 0)
(9.300000e-01 0 0)
(9.310000e-01 0 0)
(9.360000e-01 0 0)
(9.390000e-01 0 0)
(9.400000e-01 0 0)
(9.440000e-01 0 0)
(9.460000e-01 0 0)
(9.510000e-01 0 0)
(9.550000e-01 0 0)
(9.570000e-01 0 0)
(9.590000e-01 0 0)
(9.620000e-01 0 0)
(9.660000e-01 0 0)
(9.660000e-01 0 0)
(9.680000e-01 0 0)
(9.720000e-01 0 0)
(9.720000e-01 0 0)
(9.750000e-01 0 0)
(9.760000e-01 0 0)
(9.800000e-01 0 0)
(9.810000e-01 0 0)
(9.830000e-01 0 0)
(9.850000e-01 0 0)
(9.890000e-01 0 0)
(9.890000e-01 0 0)
(9.920000e-01 0 0)
(9.920000e-01 0 0)
(9.920000e-01 0 0)
(9.950000e-01 0 0)
(9.950000e-01 0 0)
(9.950000e-01 0 0)
(9.970000e-01 0 0)
(9.970000e-01 0 0)
(9.980000e-01 0 0)
(9.990000e-01 0 0)
(9.990000e-01 0 0)
(9.990000e-01 0 0)
(9.980000e-01 0 0)
(9.980000e-01 0 0)
(9.980000e-01 0 0)
(1.000000e+00 0 0)
(9.990000e-01 0 0)
(9.980000e-01 0 0)
(9.980000e-01 0 0)
(9.970000e-01 0 0)
(9.960000e-01 0 0)
(9.940000e-01 0 0)
(9.940000e-01 0 0)
(9.930000e-01 0 0)
(9.920000e-01 0 0)
(9.890000e-01 0 0)
(9.900000e-01 0 0)
(9.880000e-01 0 0)
(9.850000e-01 0 0)
(9.840000e-01 0 0)
(9.810000e-01 0 0)
(9.790000e-01 0 0)
(9.760000e-01 0 0)
(9.770000e-01 0 0)
(9.730000e-01 0 0)
(9.710000e-01 0 0)
(9.670000e-01 0 0)
(9.640000e-01 0 0)
(9.610000e-01 0 0)
(9.580000e-01 0 0)
(9.560000e-01 0 0)
(9.540000e-01 0 0)
(9.500000e-01 0 0)
(9.460000e-01 0 0)
(9.460000e-01 0 0)
(9.420000e-01 0 0)
(9.400000e-01 0 0)
(9.370000e-01 0 0)
(9.340000e-01 0 0)
(9.280000e-01 0 0)
(9.280000e-01 0 0)
(9.220000e-01 0 0)
(9.200000e-01 0 0)
(9.160000e-01 0 0)
(9.120000e-01 0 0)
(9.100000e-01 0 0)
(9.050000e-01 0 0)
(9.000000e-01 0 0)
(8.940000e-01 0 0)
(8.920000e-01 0 0)
(8.890000e-01 0 0)
(8.840000e-01 0 0)
(8.790000e-01 0 0)
(8.740000e-01 0 0)
(8.670000e-01 0 0)
(8.620000e-01 0 0)
(8.580000e-01 0 0)
(8.560000e-01 0 0)
(8.510000e-01 0 0)
(8.440000e-01 0 0)
(8.360000e-01 0 0)
(8.300000e-01 0 0)
(8.270000e-01 0 0)
(8.190000e-01 0 0)
(8.110000e-01 0 0)
(8.070000e-01 0 0)
(7.980000e-01 0 0)
(7.930000e-01 0 0)
(7.850000e-01 0 0)
(7.740000e-01 0 0)
(7.670000e-01 0 0)
(7.550000e-01 0 0)
(7.480000e-01 0 0)
(7.330000e-01 0 0)
(7.150000e-01 0 0)
(6.940000e-01 0 0)
(6.690000e-01 0 0)
(6.400000e-01 0 0)
(6.010000e-01 0 0)
(5.370000e-01 0 0)
(4.480000e-01 0 0)
(3.200000e-01 0 0)
(2.090000e-01 0 0)
(2.160000e-01 0 0)
(0.000000e+00 0 0)
// max_z
(0.000000e+00 0 0)
(2.070000e-01 0 0)
(2.310000e-01 0 0)
(3.640000e-01 0 0)
(4.770000e-01 0 0)
(5.550000e-01 0 0)
(6.110000e-01 0 0)
(6.560000e-01 0 0)
(6.840000e-01 0 0)
(7.070000e-01 0 0)
(7.280000e-01 0 0)
(7.420000e-01 0 0)
(7.530000e-01 0 0)
(7.660000e-01 0 0)
(7.730000e-01 0 0)
(7.840000e-01 0 0)
(7.920000e-01 0 0)
(7.960000e-01 0 0)
(8.050000e-01 0 0)
(8.120000e-01 0 0)
(8.200000e-01 0 0)
(8.260000e-01 0 0)
(8.330000e-01 0 0)
(8.370000e-01 0 0)
(8.410000e-01 0 0)
(8.490000e-01 0 0)
(8.520000e-01 0 0)
(8.600000e-01 0 0)
(8.670000e-01 0 0)
(8.680000e-01 0 0)
(8.710000e-01 0 0)
(8.790000e-01 0 0)
(8.810000e-01 0 0)
(8.870000e-01 0 0)
(8.920000e-01 0 0)
(8.960000e-01 0 0)
(8.980000e-01 0 0)
(9.000000e-01 0 0)
(9.040000e-01 0 0)
(9.110000e-01 0 0)
(9.160000e-01 0 0)
(9.170000e-01 0 0)
(9.200000e-01 0 0)
(9.260000e-01 0 0)
(9.300000e-01 0 0)
(9.310000e-01 0 0)
(9.360000e-01 0 0)
(9.390000e-01 0 0)
(9.400000e-01 0 0)
(9.440000e-01 0 0)
(9.460000e-01 0 0)
(9.510000e-01 0 0)
(9.550000e-01 0 0)
(9.570000e-01 0 0)
(9.590000e-01 0 0)
(9.620000e-01 0 0)
(9.660000e-01 0 0)
(9.660000e-01 0 0)
(9.680000e-01 0 0)
(9.720000e-01 0 0)
(9.720000e-01 0 0)
(9.750000e-01 0 0)
(9.760000e-01 0 0)
(9.800000e-01 0 0)
(9.810000e-01 0 0)
(9.830000e-01 0 0)
(9.850000e-01 0 0)
(9.890000e-01 0 0)
(9.890000e-01 0 0)
(9.920000e-01 0 0)
(9.920000e-01 0 0)
(9.920000e-01 0 0)
(9.950000e-01 0 0)
(9.950000e-01 0 0)
(9.950000e-01 0 0)
(9.970000e-01 0 0)
(9.970000e-01 0 0)
(9.980000e-01 0 0)
(9.990000e-01 0 0)
(9.990000e-01 0 0)
(9.990000e-01 0 0)
(9.980000e-01 0 0)
(9.980000e-01 0 0)
(9.980000e-01 0 0)
(1.000000e+00 0 0)
(9.990000e-01 0 0)
(9.980000e-01 0 0)
(9.980000e-01 0 0)
(9.970000e-01 0 0)
(9.960000e-01 0 0)
(9.940000e-01 0 0)
(9.940000e-01 0 0)
(9.930000e-01 0 0)
(9.920000e-01 0 0)
(9.890000e-01 0 0)
(9.900000e-01 0 0)
(9.880000e-01 0 0)
(9.850000e-01 0 0)
(9.840000e-01 0 0)
(9.810000e-01 0 0)
(9.790000e-01 0 0)
(9.760000e-01 0 0)
(9.770000e-01 0 0)
(9.730000e-01 0 0)
(9.710000e-01 0 0)
(9.670000e-01 0 0)
(9.640000e-01 0 0)
(9.610000e-01 0 0)
(9.580000e-01 0 0)
(9.560000e-01 0 0)
(9.540000e-01 0 0)
(9.500000e-01 0 0)
(9.460000e-01 0 0)
(9.460000e-01 0 0)
(9.420000e-01 0 0)
(9.400000e-01 0 0)
(9.370000e-01 0 0)
(9.340000e-01 0 0)
(9.280000e-01 0 0)
(9.280000e-01 0 0)
(9.220000e-01 0 0)
(9.200000e-01 0 0)
(9.160000e-01 0 0)
(9.120000e-01 0 0)
(9.100000e-01 0 0)
(9.050000e-01 0 0)
(9.000000e-01 0 0)
(8.940000e-01 0 0)
(8.920000e-01 0 0)
(8.890000e-01 0 0)
(8.840000e-01 0 0)
(8.790000e-01 0 0)
(8.740000e-01 0 0)
(8.670000e-01 0 0)
(8.620000e-01 0 0)
(8.580000e-01 0 0)
(8.560000e-01 0 0)
(8.510000e-01 0 0)
(8.440000e-01 0 0)
(8.360000e-01 0 0)
(8.300000e-01 0 0)
(8.270000e-01 0 0)
(8.190000e-01 0 0)
(8.110000e-01 0 0)
(8.070000e-01 0 0)
(7.980000e-01 0 0)
(7.930000e-01 0 0)
(7.850000e-01 0 0)
(7.740000e-01 0 0)
(7.670000e-01 0 0)
(7.550000e-01 0 0)
(7.480000e-01 0 0)
(7.330000e-01 0 0)
(7.150000e-01 0 0)
(6.940000e-01 0 0)
(6.690000e-01 0 0)
(6.400000e-01 0 0)
(6.010000e-01 0 0)
(5.370000e-01 0 0)
(4.480000e-01 0 0)
(3.200000e-01 0 0)
(2.090000e-01 0 0)
(2.160000e-01 0 0)
(0.000000e+00 0 0)
)

// ************************************************************************* //
