/*--------------------------------*- C++ -*----------------------------------*\
| =========                 |                                                 |
| \\      /  F ield         | OpenFOAM: The Open Source CFD Toolbox           |
|  \\    /   O peration     | Version:  2.2.2                                 |
|   \\  /    A nd           | Web:      www.OpenFOAM.org                      |
|    \\/     M anipulation  |                                                 |
\*---------------------------------------------------------------------------*/
FoamFile
{
    version     2.0;
    format      ascii;
    class       scalarAverageField;
    object      values;
}
// * * * * * * * * * * * * * * * * * * * * * * * * * * * * * * * * * * * * * //

// Average
0.0

// Data on points
547
(
1.87852315
1.724592259
1.498497221
1.164436144
0.978920538
0.932553458
0.800808436
0.665986859
0.621958463
0.565853848
0.326077284
2.29356005
2.27309971
2.192229302
1.889234649
1.628436529
1.343758041
1.095780991
0.57792938
0.24441353
0.066871925
0.003318868
1.789617406
1.536839221
1.405252305
1.149723836
0.894153458
0.65640353
0.424936538
0.178238227
0.031721326
0.00518432
0.000636974
1.591680532
1.36554958
1.112130847
0.760320623
0.484526424
0.328881766
0.196589584
0.041180875
0.006141752
0.000574436
0.000109394
1.515035132
1.204296712
0.952928141
0.629662581
0.374294807
0.24398961
0.111771937
0.023642463
0.002623404
0.000323259
6.90768E-05
1.467914846
1.21630602
0.889762185
0.647593656
0.444596945
0.351228592
0.211144081
0.06564755
0.019024421
0.002317312
0.000152082
1.502978015
1.236471677
1.043728531
0.635446264
0.48114765
0.329858613
0.230147129
0.054717208
0.013747406
0.001611478
0.000332364
1.482380739
1.29989306
0.77656703
0.465139007
0.310092661
0.14714133
0.049347487
0.004955542
0.000407945
0.000113898
0.000105237
1.30840907
1.063188595
0.790941696
0.51250738
0.276019085
0.117822309
0.051524349
0.003039031
0.000198256
0.000178614
8.06853E-05
0.000160826
6.03027E-05
8.37117E-05
7.36092E-05
1.609882206
1.284143481
0.898230845
0.607545262
0.363043914
0.193546879
0.093849857
0.008784895
0.000620591
0.000255713
8.01435E-05
0.000144984
0.000292815
0.000155855
3.27903E-05
1.801834037
1.543572488
1.105109189
0.822915957
0.560718217
0.343836131
0.188922397
0.030685733
0.002607238
0.000417467
0.000145928
0.000120047
7.41091E-05
7.06036E-05
6.06322E-05
1.847149724
1.510198936
1.078651159
0.700252094
0.524690194
0.304449323
0.183403414
0.032550836
0.004839921
0.000667569
0.000196553
0.000148467
0.000214664
0.000149485
7.80595E-05
1.540626612
0.987255603
0.841567633
0.592135225
0.286448484
0.141374229
0.057535382
0.005882743
0.0009326
0.000274085
0.000329324
0.000469294
0.000310896
0.000138717
3.9424E-05
1.980679684
1.486360805
1.393314857
1.146569654
0.772998234
0.589549175
0.477641834
0.231612711
0.090733964
0.056449643
0.016134078
2.11337583
1.917897834
1.751125098
1.487731327
1.336632672
1.09225735
0.75334792
0.451103883
0.141711071
0.027253545
0.000523687
1.943754834
1.679828386
1.872339599
1.500898853
1.046801056
1.016016339
0.683732009
0.253277509
0.108795136
0.026302477
0.000840488
2.082335457
1.601609728
1.654051865
1.512845378
1.216884408
1.093770084
0.842621288
0.181577964
0.086755692
0.019749059
0.003208848
1.47103803
1.361910727
0.856849482
0.696905269
0.704001507
0.22845546
0.220713812
0.037013955
0.014054241
0.001888457
0.00049113
1.053237805
0.747944706
0.560542188
0.317741662
0.14961761
0.07504759
0.017790542
0.001149662
0.000192286
0.000131769
5.8763E-05
1.151878365
0.830809244
0.617036415
0.430542684
0.263276003
0.148524013
0.070679502
0.008313558
0.001138769
0.00031797
9.30385E-05
1.202529567
0.886765847
0.722937348
0.550304481
0.345659015
0.199994054
0.107883623
0.023511676
0.00257166
0.00047586
6.54561E-05
1.219562242
0.962496496
0.661532738
0.519558201
0.321728184
0.209565286
0.112631351
0.02110705
0.002775204
0.000487577
6.02161E-05
5.51228E-05
2.42019E-05
3.80875E-05
3.77861E-05
1.15194626
0.821005451
0.587190665
0.412048458
0.248178213
0.124088423
0.062331941
0.011007754
0.001274677
0.000248305
0.000104399
4.90855E-05
5.54721E-05
2.62926E-05
7.14241E-05
0.877191954
0.691935281
0.485661147
0.36411723
0.177870955
0.085825454
0.040846141
0.005920777
0.000844122
0.000319219
9.58348E-05
2.59852E-05
3.67274E-05
4.66999E-05
0.000137368
0.951756816
0.792549458
0.43716513
0.290057224
0.137954039
0.051633163
0.014780928
0.002233867
0.000303003
0.000148364
4.41727E-05
8.28873E-05
7.80146E-05
2.33547E-05
0.000376509
1.505592082
1.152670925
0.818048205
0.66355259
0.395398742
0.270002455
0.168997225
0.052992693
0.007842215
0.002449162
0.000126965
5.90099E-05
4.60767E-05
2.59231E-05
3.85963E-05
3.085994361
2.715994194
2.270646305
2.30088183
2.083143713
1.810064835
2.81664376
2.140133818
1.626301268
1.948688646
2.438605472
2.008171577
2.638310572
2.044604613
1.872845275
2.180199252
2.451879526
1.807954641
1.372794847
1.138305401
1.13846734
1.809720082
1.61940983
2.173135061
0.736604652
0.202302816
0.991020712
1.975409115
1.786149339
1.760354927
0.910112162
0.422409732
0.446576755
1.042029478
1.061818565
0.720183788
0.41484655
0.493582746
1.372664136
1.511514898
1.599736447
0.588990939
0.121655173
0.676259561
1.472975405
1.726531502
1.500511371
0.33982926
0.059190337
0.064541436
0.246655418
0.435103269
0.192541458
0.074835889
0.118989685
1.148834218
1.357264912
1.061761417
0.464261677
0.173092155
0.581353013
1.236602651
1.570033795
0.99901653
0.077801966
0.00783791
0.004864507
0.023170201
0.14557646
0.031637037
0.013541388
0.025823369
0.684850971
1.115467153
0.837572035
0.459844649
0.201001194
0.672786874
0.96253526
1.335801774
0.746086367
0.018531307
0.002509639
0.001049494
0.004112729
0.007929783
0.000290836
0.000553171
0.001687841
0.033336329
0.213886102
0.339200344
0.250477442
0.263917038
0.368226271
0.451860005
0.246887383
0.037173651
0.002343908
0.000947303
0.000330919
0.001761938
0.00414111
0.000184016
0.000302536
0.001002156
0.005537374
0.023172137
0.06416121
0.097999154
0.134995676
0.144142385
0.087391465
0.026239489
0.005965099
0.001460102
0.00049865
0.000226464
0.001884726
0.000301971
0.000133868
0.000159978
0.000206011
0.001327229
0.003764586
0.007648742
0.010499035
0.011353509
0.013172346
0.008797161
0.003150606
0.001374476
0.000541196
0.000244293
0.00014139
0.002141458
0.000246942
0.00013509
0.000124977
9.0242e-05
0.00012163
8.21557e-05
8.56414e-05
0.000166763
0.000111936
0.000130376
0.00020789
9.24339e-05
7.85715e-05
0.000160381
7.72247e-05
0.000120031
0.000710759
0.000297522
0.00012186
0.000138692
0.00011396
0.000121035
0.000130843
7.40454e-05
0.000104435
9.67632e-05
9.0724e-05
7.60062e-05
8.93951e-05
0.000209898
0.000100367
0.000108708
0.000167356
9.89246e-05
0.000327939
5.94756e-05
0.000100641
0.000106515
9.42553e-05
0.000164012
0.000152573
0.000139018
7.98715e-05
0.000152057
0.000107097
7.55539e-05
0.000176916
0.0001277
0.000147
0.000209071
0.000124913
0.000158289
0.000176577
0.000203253
0.000220871
9.95519e-05
0.000133686
0.00018209
9.51327e-05
0.000256022
0.000121541
0.000163263
0.000200615
9.00365e-05
0.00010665
0.000133675
8.17486e-05
0.000117824
5.44484e-05
9.02548e-05
0.000188234
0.000109751
0.000132004
0.00015792
0.000189274
0.000177563
6.79702e-05
0.000127703
0.000183295
9.72685e-05
0.000116962
0.000231964
0.00018191
0.000118252
0.000337043
)

