/*--------------------------------*- C++ -*----------------------------------*\
| =========                 |                                                 |
| \\      /  F ield         | OpenFOAM: The Open Source CFD Toolbox           |
|  \\    /   O peration     | Version:  1.6                                   |
|   \\  /    A nd           | Web:      www.OpenFOAM.com                      |
|    \\/     M anipulation  |                                                 |
\*---------------------------------------------------------------------------*/

FoamFile
{
    version         2.0;
    format          ascii;
    class           dictionary;
    location        system;
    object          sampleDict;
}

// * * * * * * * * * * * * * * * * * * * * * * * * * * * * * * * * * * * * //

type sets;
libs ("libsampling.so");

interpolationScheme cellPoint;

setFormat raw;

sets
(
    z_7
    {
        type        uniform;
        axis        distance;

        //- cavity. Slightly perturbed so not to align with face or edge.
        start       ( 0.28314 0 0);
        end         ( 0.28314 0.1 0);
        nPoints     50;
    }

    z_6
    {
        type        uniform;
        axis        distance;

        //- cavity. Slightly perturbed so not to align with face or edge.
        start       ( 0.28314 0 0.00635);
        end         ( 0.28314 0.1 0.00635);
        nPoints     50;
    }

    z_5
    {
        type        uniform;
        axis        distance;

        //- cavity. Slightly perturbed so not to align with face or edge.
        start       ( 0.28314 0 0.01271);
        end         ( 0.28314 0.1 0.01271);
        nPoints     50;
    }

    z_4
    {
        type        uniform;
        axis        distance;

        //- cavity. Slightly perturbed so not to align with face or edge.
        start       ( 0.28314 0 0.0254);
        end         ( 0.28314 0.1 0.0254);
        nPoints     50;
    }

    z_3
    {
        type        uniform;
        axis        distance;

        //- cavity. Slightly perturbed so not to align with face or edge.
        start       ( 0.28314 0 0.03811);
        end         ( 0.28314 0.1 0.03811);
        nPoints     50;
    }

    z_2
    {
        type        uniform;
        axis        distance;

        //- cavity. Slightly perturbed so not to align with face or edge.
        start       ( 0.28314 0 0.05082);
        end         ( 0.28314 0.1 0.05082);
        nPoints     50;
    }

    z_1
    {
        type        uniform;
        axis        distance;

        //- cavity. Slightly perturbed so not to align with face or edge.
        start       ( 0.28314 0 0.06352);
        end         ( 0.28314 0.1 0.06352);
        nPoints     50;
    }

);

fields
(
	U
	p
);

// *********************************************************************** //
