/*--------------------------------*- C++ -*----------------------------------*\
| =========                 |                                                 |
| \\      /  F ield         | OpenFOAM: The Open Source CFD Toolbox           |
|  \\    /   O peration     | Version:  4.0                                   |
|   \\  /    A nd           | Web:      www.OpenFOAM.org                      |
|    \\/     M anipulation  |                                                 |
\*---------------------------------------------------------------------------*/
FoamFile
{
    version     2.0;
    format      ascii;
    class       volVectorField;
    object      U;
}
// * * * * * * * * * * * * * * * * * * * * * * * * * * * * * * * * * * * * * //

dimensions      [0 1 -1 0 0 0 0];

internalField   uniform (0 0 0);

boundaryField
{
    inlet
    {
        type            timeVaryingMappedFixedValue;
        setAverage      0;
	offset          (0 0 0);
        value           uniform (0 0 0);
    }
    outlet
    {
        type            zeroGradient;
    }
    slip
    {
        type            slip;
    }
    plate
    {
        type            fixedValue;
        value           uniform (0 0 0);
    }
    cube
    {
        type            fixedValue;
        value           uniform (0 0 0);
    }
    sym
    {
        type            symmetryPlane;
    }
}

// ************************************************************************* //
