/*--------------------------------*- C++ -*----------------------------------*\
| =========                 |                                                 |
| \\      /  F ield         | OpenFOAM: The Open Source CFD Toolbox           |
|  \\    /   O peration     | Version:  2.2.2                                 |
|   \\  /    A nd           | Web:      www.OpenFOAM.org                      |
|    \\/     M anipulation  |                                                 |
\*---------------------------------------------------------------------------*/
FoamFile
{
    version     2.0;
    format      ascii;
    class       scalarAverageField;
    object      values;
}
// * * * * * * * * * * * * * * * * * * * * * * * * * * * * * * * * * * * * * //

// Average
0

// Data on points
66
(
// min
1.0821057142857144
1.0821057142857144
1.0821057142857144
1.0821057142857144
1.0821057142857144
0.98589000000000016
0.71962181818181825
0.52215769230769238
0.43005375000000007
0.29644761904761907
0.21410153846153848
0.17541290322580641
0.13405609756097561
0.084384313725490184
0.045503442622950828
0.025129014084507045
0.001262941176470588
0.025129014084507045
0.045503442622950828
0.084384313725490184
0.13405609756097561
0.17541290322580641
0.21410153846153848
0.29644761904761907
0.43005375000000007
0.52215769230769238
0.71962181818181825
0.98589000000000016
1.0821057142857144
1.0821057142857144
1.0821057142857144
1.0821057142857144
1.0821057142857144
// max
1.0821057142857144
1.0821057142857144
1.0821057142857144
1.0821057142857144
1.0821057142857144
0.98589000000000016
0.71962181818181825
0.52215769230769238
0.43005375000000007
0.29644761904761907
0.21410153846153848
0.17541290322580641
0.13405609756097561
0.084384313725490184
0.045503442622950828
0.025129014084507045
0.001262941176470588
0.025129014084507045
0.045503442622950828
0.084384313725490184
0.13405609756097561
0.17541290322580641
0.21410153846153848
0.29644761904761907
0.43005375000000007
0.52215769230769238
0.71962181818181825
0.98589000000000016
1.0821057142857144
1.0821057142857144
1.0821057142857144
1.0821057142857144
1.0821057142857144
)

// ************************************************************************* //
