/*--------------------------------*- C++ -*----------------------------------*\
| =========                 |                                                 |
| \\      /  F ield         | OpenFOAM: The Open Source CFD Toolbox           |
|  \\    /   O peration     | Version:  2.2.2                                 |
|   \\  /    A nd           | Web:      www.OpenFOAM.org                      |
|    \\/     M anipulation  |                                                 |
\*---------------------------------------------------------------------------*/
FoamFile
{
    version     2.0;
    format      ascii;
    class       scalarAverageField;
    object      values;
}
// * * * * * * * * * * * * * * * * * * * * * * * * * * * * * * * * * * * * * //

// Average
0

// Data on points
66
(
// min
0.032799999999999996
0.032799999999999996
0.032199999999999999
0.029900000000000003
0.041360000000000001
0.041050000000000003
0.037229999999999999
0.036889999999999999
0.033870000000000004
0.03075
0.028909999999999998
0.026679999999999999
0.023190000000000002
0.018800000000000001
0.014749999999999999
0.011780000000000001
0.0098200000000000006
0.011780000000000001
0.014749999999999999
0.018800000000000001
0.023190000000000002
0.026679999999999999
0.028909999999999998
0.03075
0.033870000000000004
0.036889999999999999
0.037229999999999999
0.041050000000000003
0.041360000000000001
0.029900000000000003
0.032199999999999999
0.032799999999999996
0.032799999999999996
// max
0.032799999999999996
0.032799999999999996
0.032199999999999999
0.029900000000000003
0.041360000000000001
0.041050000000000003
0.037229999999999999
0.036889999999999999
0.033870000000000004
0.03075
0.028909999999999998
0.026679999999999999
0.023190000000000002
0.018800000000000001
0.014749999999999999
0.011780000000000001
0.0098200000000000006
0.011780000000000001
0.014749999999999999
0.018800000000000001
0.023190000000000002
0.026679999999999999
0.028909999999999998
0.03075
0.033870000000000004
0.036889999999999999
0.037229999999999999
0.041050000000000003
0.041360000000000001
0.029900000000000003
0.032199999999999999
0.032799999999999996
0.032799999999999996
)

// ************************************************************************* //
