/*--------------------------------*- C++ -*----------------------------------*\
| =========                 |                                                 |
| \\      /  F ield         | OpenFOAM: The Open Source CFD Toolbox           |
|  \\    /   O peration     | Version:  2.2.2                                 |
|   \\  /    A nd           | Web:      www.OpenFOAM.org                      |
|    \\/     M anipulation  |                                                 |
\*---------------------------------------------------------------------------*/
FoamFile
{
    version     2.0;
    format      ascii;
    class       vectorAverageField;
    object      values;
}
// * * * * * * * * * * * * * * * * * * * * * * * * * * * * * * * * * * * * * //

// Average
(0 0 0)

// Data on points
66
(
// min
(0 0 0)
(1.274 0 0)
(1.3919999999999999 0 0)
(1.5209999999999999 0 0)
(1.6220000000000001 0 0)
(1.671 0 0)
(1.706 0 0)
(1.7450000000000001 0 0)
(1.778 0 0)
(1.831 0 0)
(1.8680000000000001 0 0)
(1.9079999999999999 0 0)
(1.97 0 0)
(2.0299999999999998 0 0)
(2.0870000000000002 0 0)
(2.1240000000000001 0 0)
(2.1469999999999998 0 0)
(2.1240000000000001 0 0)
(2.0870000000000002 0 0)
(2.0299999999999998 0 0)
(1.97 0 0)
(1.9079999999999999 0 0)
(1.8680000000000001 0 0)
(1.831 0 0)
(1.778 0 0)
(1.7450000000000001 0 0)
(1.706 0 0)
(1.671 0 0)
(1.6220000000000001 0 0)
(1.5209999999999999 0 0)
(1.3919999999999999 0 0)
(1.274 0 0)
(0 0 0)
// max
(0 0 0)
(1.274 0 0)
(1.3919999999999999 0 0)
(1.5209999999999999 0 0)
(1.6220000000000001 0 0)
(1.671 0 0)
(1.706 0 0)
(1.7450000000000001 0 0)
(1.778 0 0)
(1.831 0 0)
(1.8680000000000001 0 0)
(1.9079999999999999 0 0)
(1.97 0 0)
(2.0299999999999998 0 0)
(2.0870000000000002 0 0)
(2.1240000000000001 0 0)
(2.1469999999999998 0 0)
(2.1240000000000001 0 0)
(2.0870000000000002 0 0)
(2.0299999999999998 0 0)
(1.97 0 0)
(1.9079999999999999 0 0)
(1.8680000000000001 0 0)
(1.831 0 0)
(1.778 0 0)
(1.7450000000000001 0 0)
(1.706 0 0)
(1.671 0 0)
(1.6220000000000001 0 0)
(1.5209999999999999 0 0)
(1.3919999999999999 0 0)
(1.274 0 0)
(0 0 0)
)

// ************************************************************************* //
