/*--------------------------------*- C++ -*----------------------------------*\
| =========                 |                                                 |
| \\      /  F ield         | OpenFOAM: The Open Source CFD Toolbox           |
|  \\    /   O peration     | Version:  4.0                                   |
|   \\  /    A nd           | Web:      www.OpenFOAM.org                      |
|    \\/     M anipulation  |                                                 |
\*---------------------------------------------------------------------------*/
FoamFile
{
    version     2.0;
    format      ascii;
    class       dictionary;
    object      blockMeshDict;
}
// * * * * * * * * * * * * * * * * * * * * * * * * * * * * * * * * * * * * * //

convertToMeters 2.5e-2;

vertices        
(
(-3 0 0) // 0
(0 0 0) // 1
(0 3 0) // 2
(-3 3 0) // 3
(1 0 0) // 4
(1 3 0) // 5
(10 0 0) // 6
(10 3 0) // 7
(-3 3.5 0) // 8
(0 3.5 0) // 9
(1 3.5 0) // 10
(10 3.5 0) // 11

(-3 0 0.5) // 12
(0 0 0.5) // 13
(0 3 0.5) // 14
(-3 3 0.5) // 15
(1 0 0.5) // 16
(1 3 0.5) // 17
(10 0 0.5) // 18
(10 3 0.5) // 19
(-3 3.5 0.5) // 20
(0 3.5 0.5) // 21
(1 3.5 0.5) // 22
(10 3.5 0.5) // 23

(-3 0 1) // 24
(0 0 1) // 25
(0 3 1) // 26
(-3 3 1) // 27
(1 0 1) // 28
(1 3 1) // 29
(10 0 1) // 30
(10 3 1) // 31
(-3 3.5 1) // 32
(0 3.5 1) // 33
(1 3.5 1) // 34
(10 3.5 1) // 35

(-3 0 1.5) // 36
(0 0 1.5) // 37
(0 3 1.5) // 38
(-3 3 1.5) // 39
(1 0 1.5) // 40
(1 3 1.5) // 41
(10 0 1.5) // 42
(10 3 1.5) // 43
(-3 3.5 1.5) // 44
(0 3.5 1.5) // 45
(1 3.5 1.5) // 46
(10 3.5 1.5) // 47

(-3 0 2) // 48
(0 0 2) // 49
(0 3 2) // 50
(-3 3 2) // 51
(1 0 2) // 52
(1 3 2) // 53
(10 0 2) // 54
(10 3 2) // 55
(-3 3.5 2) // 56
(0 3.5 2) // 57
(1 3.5 2) // 58
(10 3.5 2) // 59

// add cube half line
(0.5 0 0) // 60
(0.5 3 0) // 61
(0.5 0 0.5) // 62
(0.5 3 0.5) // 63
(0.5 0 1) // 64
(0.5 3 1) // 65
(0.5 0 1.5) // 66
(0.5 3 1.5) // 67
(0.5 0 2) // 68
(0.5 3 2) // 69

// add cube upper
(0.5 3.5 1) // 70
(0.5 3.5 1.5) // 71
(0.5 3.5 2) // 72
);

blocks          
(
// front zone outer
hex (0 1 2 3 12 13 14 15) (20 20 10) simpleGrading (0.05 0.025 5)  // layer1(bottom)
hex (12 13 14 15 24 25 26 27) (20 20 10) simpleGrading (0.05 0.025 0.2)  // layer2
hex (24 25 26 27 36 37 38 39) (20 20 10) simpleGrading (0.05 0.025 5)    // layer3
hex (36 37 38 39 48 49 50 51) (20 20 10) simpleGrading (0.05 0.025 0.2)  // layer4(top)

// front zone inner
hex (3 2 9 8 15 14 21 20) (20 10 10) simpleGrading (0.05 10 5)  // layer1(bottom)
hex (15 14 21 20 27 26 33 32) (20 10 10) simpleGrading (0.05 10 0.2)  // layer2
hex (27 26 33 32 39 38 45 44) (20 10 10) simpleGrading (0.05 10 5)    // layer3
hex (39 38 45 44 51 50 57 56) (20 10 10) simpleGrading (0.05 10 0.2)  // layer4(top)

// box front zone
hex (1 60 61 2 13 62 63 14) (10 20 10) simpleGrading (10 0.025 5)  // layer1(bottom)
hex (13 62 63 14 25 64 65 26) (10 20 10) simpleGrading (10 0.025 0.2)  // layer2
hex (25 64 65 26 37 66 67 38) (10 20 10) simpleGrading (10 0.025 5)    // layer3
hex (37 66 67 38 49 68 69 50) (10 20 10) simpleGrading (10 0.025 0.2)  // layer4(top)

// box back zone
hex (60 4 5 61 62 16 17 63) (10 20 10) simpleGrading (0.1 0.025 5)  // layer1(bottom)
hex (62 16 17 63 64 28 29 65) (10 20 10) simpleGrading (0.1 0.025 0.2)  // layer2
hex (64 28 29 65 66 40 41 67) (10 20 10) simpleGrading (0.1 0.025 5)    // layer3
hex (66 40 41 67 68 52 53 69) (10 20 10) simpleGrading (0.1 0.025 0.2)  // layer4(top)

// cube downstream outer zone
hex (4 6 7 5 16 18 19 17) (30 20 10) simpleGrading (40 0.025 5)  // layer1(bottom)
hex (16 18 19 17 28 30 31 29) (30 20 10) simpleGrading (40 0.025 0.2)  // layer2
hex (28 30 31 29 40 42 43 41) (30 20 10) simpleGrading (40 0.025 5)    // layer3
hex (40 42 43 41 52 54 55 53) (30 20 10) simpleGrading (40 0.025 0.2)  // layer4(top)

// cube downstream inner zone
hex (5 7 11 10 17 19 23 22) (30 10 10) simpleGrading (40 10 5)  // layer1(bottom)
hex (17 19 23 22 29 31 35 34) (30 10 10) simpleGrading (40 10 0.2)  // layer2
hex (29 31 35 34 41 43 47 46) (30 10 10) simpleGrading (40 10 5)    // layer3
hex (41 43 47 46 53 55 59 58) (30 10 10) simpleGrading (40 10 0.2)  // layer4(top)

// box upper layer3
hex (26 65 70 33 38 67 71 45) (10 10 10) simpleGrading (10 10 5)  //front
hex (65 29 34 70 67 41 46 71) (10 10 10) simpleGrading (0.1 10 5)  //back

// box upper layer4
hex (38 67 71 45 50 69 72 57) (10 10 10) simpleGrading (10 10 0.2)  //front
hex (67 41 46 71 69 53 58 72) (10 10 10) simpleGrading (0.1 10 0.2)  //back
);

edges           
(
);

patches         
(
patch inlet
(
(0 12 15 3)
(12 24 27 15)
(24 36 39 27)
(36 48 51 39)
(3 15 20 8)
(15 27 32 20)
(27 39 44 32)
(39 51 56 44)
)

patch outlet
(
(7 19 18 6)
(19 31 30 18)
(31 43 42 30)
(43 55 54 42)
(11 23 19 7)
(23 35 31 19)
(35 47 43 31)
(47 59 55 43)
)

patch slip
(
// front
(1 13 12 0)
(13 25 24 12)
(25 37 36 24)
(37 49 48 36)

// cube side
(1 60 62 13)
(13 62 64 25)
(25 64 66 37)
(37 66 68 49)
(60 4 16 62)
(62 16 28 64)
(64 28 40 66)
(66 40 52 68)

// downstream
(4 16 18 6)
(16 28 30 18)
(28 40 42 30)
(40 52 54 42)
)

wall plate
(
(0 1 2 3)
(3 2 9 8)
(51 48 49 50)
(56 51 50 57)

(1 60 61 2)
(60 4 5 61)
(49 68 69 50)
(68 52 53 69)

(4 6 7 5)
(52 53 55 54)
(5 7 11 10)
(53 58 59 55)

// upper
(50 69 72 57)
(69 53 58 72)
)

wall cube
(
// front
(2 14 21 9)
(14 26 33 21)

// side
(2 61 63 14)
(14 63 65 26)
(61 5 17 63)
(63 17 29 65)

// up
(26 65 70 33)
(65 29 34 70)

// back
(34 29 17 22)
(22 17 5 10)
)

symmetryPlane sym
(
// front
(9 21 20 8)
(21 33 32 20)
(33 45 44 32)
(45 57 56 44)

// cube 
(70 71 45 33)
(71 72 57 45)
(34 46 71 70)
(46 58 72 71)

// downstream
(11 23 22 10)
(23 35 34 22)
(35 47 46 34)
(47 59 58 46)
)

);

mergePatchPairs
(
);

// ************************************************************************* //
