/*--------------------------------*- C++ -*----------------------------------*\
| =========                 |                                                 |
| \\      /  F ield         | OpenFOAM: The Open Source CFD Toolbox           |
|  \\    /   O peration     | Version:  4.0                                   |
|   \\  /    A nd           | Web:      www.OpenFOAM.org                      |
|    \\/     M anipulation  |                                                 |
\*---------------------------------------------------------------------------*/
FoamFile
{
    version     2.0;
    format      ascii;
    class       dictionary;
    object      sampleDict;
}
// * * * * * * * * * * * * * * * * * * * * * * * * * * * * * * * * * * * * * //

type sets;
libs ("libsampling.so");

interpolationScheme cellPointFace;

setFormat raw;

sets
(
    mu_0101
    {
        type            face;
        axis            z;
        start           (-0.075 0.0875 0.0);
        end             (-0.075 0.0875 0.05);
    }
    mu_0201
    {
        type            face;
        axis            z;
        start           (-0.025 0.0875 0.0);
        end             (-0.025 0.0875 0.05);
    }
    mu_0302
    {
        type            face;
        axis            z;
        start           (0.0 0.0625 0.0);
        end             (0.0 0.0625 0.05);
    }
    mu_0401
    {
        type            face;
        axis            z;
        start           (0.0125 0.0875 0.0);
        end             (0.0125 0.0875 0.05);
    }
    mu_0402
    {
        type            face;
        axis            z;
        start           (0.0125 0.0625 0.0);
        end             (0.0125 0.0625 0.05);
    }
    mu_0501
    {
        type            face;
        axis            z;
        start           (0.025 0.0875 0.0);
        end             (0.025 0.0875 0.05);
    }
    mu_0502
    {
        type            face;
        axis            z;
        start           (0.025 0.0625 0.0);
        end             (0.025 0.0625 0.05);
    }
    mu_0601
    {
        type            face;
        axis            z;
        start           (0.0375 0.0875 0.0);
        end             (0.0375 0.0875 0.05);
    }
    mu_0701
    {
        type            face;
        axis            z;
        start           (0.05 0.0875 0.0);
        end             (0.05 0.0875 0.05);
    }
    mu_0801
    {
        type            face;
        axis            z;
        start           (0.0625 0.0875 0.0);
        end             (0.0625 0.0875 0.05);
    }
    mu_0901
    {
        type            face;
        axis            z;
        start           (0.1 0.0875 0.0);
        end             (0.1 0.0875 0.05);
    }
    mu_1001
    {
        type            face;
        axis            z;
        start           (0.2 0.0875 0.0);
        end             (0.2 0.0875 0.05);
    }
);

fields
( 
    U
);

// ************************************************************************* //
