/*--------------------------------*- C++ -*----------------------------------*\
| =========                 |                                                 |
| \\      /  F ield         | OpenFOAM: The Open Source CFD Toolbox           |
|  \\    /   O peration     | Version:  2.1.1                                 |
|   \\  /    A nd           | Web:      www.OpenFOAM.org                      |
|    \\/     M anipulation  |                                                 |
\*---------------------------------------------------------------------------*/
FoamFile
{
    version     2.0;
    format      ascii;
    class       volScalarField;
    location    "0";
    object      epsilon;
}
// * * * * * * * * * * * * * * * * * * * * * * * * * * * * * * * * * * * * * //

dimensions      [0 2 -3 0 0 0 0];

internalField   uniform 59.4059;

boundaryField
{
    inlet
    {
        type            timeVaryingMappedFixedValue;
        setAverage      0;
	offset          0;
        perturb         1e-05;
        value           $internalField;
    }
    bottom
    {
        type            epsilonWallFunction;
        value           $internalField;
    }
    side1
    {
        type            slip;
    }
    outlet
    {
        type            zeroGradient;
    }
    top
    {
        type            epsilonWallFunction;
        value           $internalField;
    }
    side2
    {
        type            slip;
    }
}


// ************************************************************************* //
