/*--------------------------------*- C++ -*----------------------------------*\
| =========                 |                                                 |
| \\      /  F ield         | OpenFOAM: The Open Source CFD Toolbox           |
|  \\    /   O peration     | Version:  2.2.2                                 |
|   \\  /    A nd           | Web:      www.OpenFOAM.org                      |
|    \\/     M anipulation  |                                                 |
\*---------------------------------------------------------------------------*/
FoamFile
{
    version     2.0;
    format      ascii;
    class       dictionary;
    object      decomposeParDict;
}
// * * * * * * * * * * * * * * * * * * * * * * * * * * * * * * * * * * * * * //

numberOfSubdomains  16;

//- Keep owner and neighbour on same processor for faces in zones:
// preserveFaceZones (heater solid1 solid3);

// Face zones which need to be present on all CPUs in its entirety
// globalFaceZones (ggiInside ggiOutside);

//- Keep owner and neighbour on same processor for faces in patches:
//  (makes sense only for cyclic patches)
//preservePatches (cyclic_left_right);

method          scotch;
// method          hierarchical;
// method          simple;
// method          metis;
// method          manual;

simpleCoeffs
{
    n           (2 2 1);
    delta       0.001;
}

hierarchicalCoeffs
{
    n           (2 2 1);
    delta       0.001;
    order       xyz;
}

metisCoeffs
{
    processorWeights
    (
        1
        1
    );
}

manualCoeffs
{
    dataFile    "cellDecomposition";
}

//// Is the case distributed
//distributed     yes;
//// Per slave (so nProcs-1 entries) the directory above the case.
//roots           
//(
//    "/tmp"
//    "/tmp"
//);

// ************************************************************************* //
