/*--------------------------------*- C++ -*----------------------------------*\
| =========                 |                                                 |
| \\      /  F ield         | OpenFOAM: The Open Source CFD Toolbox           |
|  \\    /   O peration     | Version:  2.2.2                                 |
|   \\  /    A nd           | Web:      www.OpenFOAM.org                      |
|    \\/     M anipulation  |                                                 |
\*---------------------------------------------------------------------------*/
FoamFile
{
    version     2.0;
    format      ascii;
    class       dictionary;
    object      fvSolution;
}
// * * * * * * * * * * * * * * * * * * * * * * * * * * * * * * * * * * * * * //

solvers
{
    p
    {
        solver          GAMG;
        tolerance       1e-08;
        relTol          0.01;
        smoother        GaussSeidel;
        cacheAgglomeration on;
        nCellsInCoarsestLevel 100;
        agglomerator    faceAreaPair;
        mergeLevels     1;
    }

    "(U|k|epsilon|omega|nuTilda|R|nonlinearStress)"
    {
        solver           smoothSolver;
        smoother         GaussSeidel;
        tolerance        1e-7;
        relTol           0.1;
        nSweeps          1;
    }
}

SIMPLE
{
    nNonOrthogonalCorrectors 0;

    residualControl
    {
        p               5e-5;
        U               1e-5;
        "(k|epsilon|omega)"   1e-5;
    }
}

relaxationFactors
{
    fields
    {
        p               0.1;
    }
    equations
    {
        U               0.3;
        k               0.3;
        epsilon         0.3;
        omega           0.3;
    }
}

// ************************************************************************* //
