/*--------------------------------*- C++ -*----------------------------------*\
| =========                 |                                                 |
| \\      /  F ield         | OpenFOAM: The Open Source CFD Toolbox           |
|  \\    /   O peration     | Version:  2.2.2                                 |
|   \\  /    A nd           | Web:      www.OpenFOAM.org                      |
|    \\/     M anipulation  |                                                 |
\*---------------------------------------------------------------------------*/
FoamFile
{
    version     2.0;
    format      ascii;
    class       regIOobject;
    object      faceZones;
}
// * * * * * * * * * * * * * * * * * * * * * * * * * * * * * * * * * * * * * //

1
(
hill_outletafter_inletCutFaceZone
{
    type faceZone;
faceLabels      List<label> 
200
(
70144
50176
70146
50178
70148
50180
70149
50182
50184
50186
50188
50190
50192
50194
50196
50198
50199
69952
69954
69956
69958
69960
69962
69964
69966
69968
69970
50002
69972
50004
69974
50006
69976
50008
69978
50010
69980
50012
69982
50014
69984
50016
69986
50018
69988
50020
69990
50022
69992
50024
69994
50026
69996
50028
69998
50030
70000
50032
70002
50034
70004
50036
70006
50038
70008
50040
70010
50042
70012
50044
70014
50046
70016
50048
70018
50050
70020
50052
70022
50054
70024
50056
70026
50058
70028
50060
70030
50062
70032
50064
70034
50066
70036
50068
70038
50070
70040
50072
70042
50074
70044
50076
70046
50078
70048
50080
70050
50082
70052
50084
70054
50086
70056
50088
70058
50090
70060
50092
70062
50094
70064
50096
70066
50098
70068
50100
70070
50102
70072
50104
70074
50106
70076
50108
70078
50110
70080
50112
70082
50114
70084
50116
70086
50118
70088
50120
70090
50122
70092
50124
70094
50126
70096
50128
70098
50130
70100
50132
70102
50134
70104
50136
70106
50138
70108
50140
70110
50142
70112
50144
70114
50146
70116
50148
70118
50150
70120
50152
70122
50154
70124
50156
70126
50158
70128
50160
70130
50162
70132
50164
70134
50166
70136
50168
70138
50170
70140
50172
70142
50174
)
;
flipMap         List<bool> 200{0};
}
)

// ************************************************************************* //
