/*--------------------------------*- C++ -*----------------------------------*\
| =========                 |                                                 |
| \\      /  F ield         | OpenFOAM Extend Project: Open Source CFD        |
|  \\    /   O peration     | Version:  1.6-ext                               |
|   \\  /    A nd           | Web:      www.extend-project.de                 |
|    \\/     M anipulation  |                                                 |
\*---------------------------------------------------------------------------*/
FoamFile
{
    version     2.0;
    format      ascii;
    class       dictionary;
    object      blockMeshDict;
}
// * * * * * * * * * * * * * * * * * * * * * * * * * * * * * * * * * * * * * //

convertToMeters 1;

vertices
(
(-0.6e-1 0 0) // 0
(-1.4142e-3 0 0) // 1
(-1.4142e-3 0.02 0) // 2
(-0.6e-1 0.02 0) // 3

(-0.6e-1 0 0.06283184) // 4
(-1.4142e-3 0 0.06283184) // 5
(-1.4142e-3 0.02 0.06283184) // 6
(-0.6e-1 0.02 0.06283184) // 7

(-0.6e-1 0.04 0) // 8
(-1.4142e-3 0.04 0) // 9
(-0.6e-1 0.04 0.06283184) // 10
(-1.4142e-3 0.04 0.06283184) // 11

(0 0 0) // 12
(0 0.02 0) // 13
(0 0.04 0) // 14
(0 0 0.06283184) // 15
(0 0.02 0.06283184) // 16
(0 0.04 0.06283184) // 17

(0 -0.02 0) // 22 -> 18
(0.5 -0.02 0) // 23 -> 19
(0.5 -0.01 0) // 24  -> 20
(0 -0.01 0) // 25    -> 21
(0 -0.02 0.06283184) // 26  -> 22
(0.5 -0.02 0.06283184) // 27  -> 23
(0.5 -0.01 0.06283184) // 28  -> 24
(0 -0.01 0.06283184) // 29  -> 25

(0.5 0 0) // 30   -> 26
(0.5 0 0.06283184) // 31  -> 27
(0.5 0.02 0) // 32   -> 28
(0.5 0.02 0.06283184) // 33  -> 29
(0.5 0.04 0) // 34  -> 30
(0.5 0.04 0.06283184) // 35  -> 31

);

blocks
(
hex (0 1 2 3 4 5 6 7) (30 40 1) simpleGrading (0.01 25 1)
hex (3 2 9 8 7 6 11 10) (30 40 1) simpleGrading (0.01 0.04 1)
hex (1 12 13 2 5 15 16 6) (20 40 1) simpleGrading (1 25 1)
hex (2 13 14 9 6 16 17 11) (20 40 1) simpleGrading (1 0.04 1)
//
hex (18 19 20 21 22 23 24 25) (150 20 1) simpleGrading (150 25 1)   // downstream
hex (21 20 26 12 25 24 27 15) (150 20 1) simpleGrading (150 0.04 1) // downstream
hex (12 26 28 13 15 27 29 16) (150 40 1) simpleGrading (150 25 1)   // downstream
hex (13 28 30 14 16 29 31 17) (150 40 1) simpleGrading (150 0.04 1) // downstream

);

edges
(
);

//patches
boundary
(
  
inlet
{
  //  type patch;  
  type mappedPatch;
  offset (0.03 0 0);
  sampleRegion region0;
  sampleMode   nearestCell;
  samplePatch  none;

  faces
  (
  (4 7 3 0)
  (7 10 8 3)
  );
}

outlet
{
  type patch;
  faces
  (
  (28 30 31 29)
  (26 28 29 27)
  (20 26 27 24)
  (19 20 24 23)
  );
}

synthetic
{
  type patch;
  faces
  (
//(21 20 18 19)
  (12 15 5 1)
  );
}

wall
{
  type wall;
  faces
  (
  (9 11 10 8)
  (14 17 11 9)
  (4 0 1 5)
//
  (30 31 17 14)
  (22 18 19 23)
  (22 25 21 18)
  (25 15 12 21)
  );
}
  
  
front
{
//  type cyclic;
//  neighbourPatch back;

  type empty;
  faces
  (
  (1 2 3 0)
  (2 9 8 3)
  (12 13 2 1)
  (13 14 9 2)
 
  (19 20 21 18)
  (20 26 12 21)
  (26 28 13 12)
  (28 30 14 13)
//  );
//}

//back
//{
//  type cyclic;
//  neighbourPatch front;
//  faces
//  (

  (5 6 7 4)
  (6 11 10 7)
  (15 16 6 5)
  (16 17 11 6)
 
  (23 24 25 22)
  (24 27 15 25)
  (27 29 16 15)
  (29 31 17 16)
  );
}

);

mergePatchPairs
(
);

// ************************************************************************* //
