/*--------------------------------*- C++ -*----------------------------------*\
| =========                 |                                                 |
| \\      /  F ield         | OpenFOAM: The Open Source CFD Toolbox           |
|  \\    /   O peration     | Version:  4.0                                   |
|   \\  /    A nd           | Web:      www.OpenFOAM.org                      |
|    \\/     M anipulation  |                                                 |
\*---------------------------------------------------------------------------*/
FoamFile
{
    version     2.0;
    format      ascii;
    class       scalarAverageField;
    object      values;
}
// * * * * * * * * * * * * * * * * * * * * * * * * * * * * * * * * * * * * * //

// Average
0.0

// Data on points
328
(
// min_z
3.168187e-02
3.168187e-02
4.754325e-03
8.637625e-03
1.094133e-02
1.259341e-02
1.206099e-02
1.127482e-02
1.076285e-02
1.021868e-02
9.786740e-03
9.089460e-03
8.912785e-03
8.646525e-03
8.598685e-03
8.112245e-03
7.945320e-03
7.618885e-03
7.541905e-03
7.529390e-03
7.021170e-03
7.188545e-03
6.913725e-03
6.904805e-03
6.646525e-03
6.378570e-03
6.448650e-03
6.230430e-03
6.071350e-03
6.013485e-03
5.871095e-03
5.604455e-03
5.462020e-03
5.537695e-03
5.478030e-03
5.391220e-03
5.178745e-03
5.173310e-03
5.060585e-03
4.814210e-03
4.833270e-03
4.784845e-03
4.521025e-03
4.517125e-03
4.457805e-03
4.483445e-03
4.327045e-03
4.232020e-03
4.111110e-03
4.102510e-03
4.025765e-03
3.827335e-03
3.740260e-03
3.706970e-03
3.620810e-03
3.655240e-03
3.510095e-03
3.576290e-03
3.334625e-03
3.263445e-03
3.150325e-03
3.193735e-03
3.099610e-03
2.959745e-03
2.953230e-03
2.809825e-03
2.806285e-03
2.632590e-03
2.746150e-03
2.583015e-03
2.709490e-03
2.607850e-03
2.511975e-03
2.516870e-03
2.428645e-03
2.389450e-03
2.468605e-03
2.399645e-03
2.347305e-03
2.357985e-03
2.325370e-03
2.306325e-03
2.381620e-03
2.319620e-03
2.285725e-03
2.332985e-03
2.359070e-03
2.311855e-03
2.438050e-03
2.427055e-03
2.440150e-03
2.526685e-03
2.512190e-03
2.504065e-03
2.622405e-03
2.601490e-03
2.695145e-03
2.905690e-03
2.849470e-03
2.934430e-03
2.891320e-03
3.011625e-03
3.121890e-03
3.169495e-03
3.340815e-03
3.343230e-03
3.375000e-03
3.470850e-03
3.647470e-03
3.789290e-03
3.746065e-03
3.806525e-03
3.911695e-03
3.938230e-03
3.880405e-03
4.029625e-03
4.119565e-03
4.289095e-03
4.359230e-03
4.504510e-03
4.487610e-03
4.633985e-03
4.947310e-03
4.880230e-03
4.753270e-03
4.854145e-03
4.940470e-03
5.190250e-03
5.144385e-03
5.532010e-03
5.603050e-03
5.449980e-03
5.682020e-03
5.860445e-03
5.937170e-03
5.987905e-03
6.072750e-03
6.344760e-03
6.570145e-03
6.662965e-03
6.607365e-03
6.811255e-03
7.076610e-03
7.153845e-03
7.256205e-03
7.348665e-03
7.430310e-03
7.657180e-03
8.184365e-03
8.250670e-03
8.563545e-03
8.908260e-03
9.367565e-03
9.717025e-03
1.070257e-02
1.065240e-02
1.116954e-02
1.144500e-02
1.153661e-02
1.083387e-02
7.633890e-03
3.585159e-03
2.388882e-02
2.388882e-02
// max_z
3.168187e-02
3.168187e-02
4.754325e-03
8.637625e-03
1.094133e-02
1.259341e-02
1.206099e-02
1.127482e-02
1.076285e-02
1.021868e-02
9.786740e-03
9.089460e-03
8.912785e-03
8.646525e-03
8.598685e-03
8.112245e-03
7.945320e-03
7.618885e-03
7.541905e-03
7.529390e-03
7.021170e-03
7.188545e-03
6.913725e-03
6.904805e-03
6.646525e-03
6.378570e-03
6.448650e-03
6.230430e-03
6.071350e-03
6.013485e-03
5.871095e-03
5.604455e-03
5.462020e-03
5.537695e-03
5.478030e-03
5.391220e-03
5.178745e-03
5.173310e-03
5.060585e-03
4.814210e-03
4.833270e-03
4.784845e-03
4.521025e-03
4.517125e-03
4.457805e-03
4.483445e-03
4.327045e-03
4.232020e-03
4.111110e-03
4.102510e-03
4.025765e-03
3.827335e-03
3.740260e-03
3.706970e-03
3.620810e-03
3.655240e-03
3.510095e-03
3.576290e-03
3.334625e-03
3.263445e-03
3.150325e-03
3.193735e-03
3.099610e-03
2.959745e-03
2.953230e-03
2.809825e-03
2.806285e-03
2.632590e-03
2.746150e-03
2.583015e-03
2.709490e-03
2.607850e-03
2.511975e-03
2.516870e-03
2.428645e-03
2.389450e-03
2.468605e-03
2.399645e-03
2.347305e-03
2.357985e-03
2.325370e-03
2.306325e-03
2.381620e-03
2.319620e-03
2.285725e-03
2.332985e-03
2.359070e-03
2.311855e-03
2.438050e-03
2.427055e-03
2.440150e-03
2.526685e-03
2.512190e-03
2.504065e-03
2.622405e-03
2.601490e-03
2.695145e-03
2.905690e-03
2.849470e-03
2.934430e-03
2.891320e-03
3.011625e-03
3.121890e-03
3.169495e-03
3.340815e-03
3.343230e-03
3.375000e-03
3.470850e-03
3.647470e-03
3.789290e-03
3.746065e-03
3.806525e-03
3.911695e-03
3.938230e-03
3.880405e-03
4.029625e-03
4.119565e-03
4.289095e-03
4.359230e-03
4.504510e-03
4.487610e-03
4.633985e-03
4.947310e-03
4.880230e-03
4.753270e-03
4.854145e-03
4.940470e-03
5.190250e-03
5.144385e-03
5.532010e-03
5.603050e-03
5.449980e-03
5.682020e-03
5.860445e-03
5.937170e-03
5.987905e-03
6.072750e-03
6.344760e-03
6.570145e-03
6.662965e-03
6.607365e-03
6.811255e-03
7.076610e-03
7.153845e-03
7.256205e-03
7.348665e-03
7.430310e-03
7.657180e-03
8.184365e-03
8.250670e-03
8.563545e-03
8.908260e-03
9.367565e-03
9.717025e-03
1.070257e-02
1.065240e-02
1.116954e-02
1.144500e-02
1.153661e-02
1.083387e-02
7.633890e-03
3.585159e-03
2.388882e-02
2.388882e-02
)

// ************************************************************************* //
