/*--------------------------------*- C++ -*----------------------------------*\
| =========                 |                                                 |
| \\      /  F ield         | OpenFOAM: The Open Source CFD Toolbox           |
|  \\    /   O peration     | Version:  4.0                                   |
|   \\  /    A nd           | Web:      www.OpenFOAM.org                      |
|    \\/     M anipulation  |                                                 |
\*---------------------------------------------------------------------------*/
FoamFile
{
    version     2.0;
    format      ascii;
    class       scalarAverageField;
    object      values;
}
// * * * * * * * * * * * * * * * * * * * * * * * * * * * * * * * * * * * * * //

// Average
0.0

// Data on points
328
(
// min_z
0.0234835
0.0234835
0.156489
0.605491
0.704668
0.605872
0.562972
0.435484
0.365145
0.345446
0.282014
0.210133
0.232251
0.17348
0.163979
0.173811
0.125231
0.141753
0.163089
0.154063
0.142426
0.134937
0.113398
0.0829857
0.126382
0.120717
0.125763
0.154082
0.0821893
0.0427373
0.122635
0.10563
0.0825702
0.119183
0.100584
0.0714124
0.0401642
0.0616626
0.129432
0.139171
0.0585525
0.0401267
0.0971019
0.111575
0.0524922
0.0642363
0.0815799
0.0394611
0.0462162
0.0480194
0.063342
0.0859606
0.0516007
0.0366876
0.0444652
0.0593668
0.0350418
0.0164975
0.0479814
0.032481
0.0217755
0.0285559
0.0371014
0.0351382
0.020994
0.0271191
0.0381287
0.0211959
0.019409
0.0162988
0.015538
0.0136511
0.0126992
0.0126745
0.00559983
0.00682165
0.00200923
0.00550081
0.00187449
0.001866
0.00189217
0.000715424
0.000692806
0.000711323
0.000721872
0.00475785
0.002785
0.0044553
0.0123869
0.0137203
0.00942565
0.00854875
0.0158826
0.0367403
0.0128889
0.00634252
0.0463797
0.0416424
0.0280754
0.0398715
0.0556839
0.0255012
0.0345944
0.0485882
0.0511851
0.0879389
0.0776296
0.050708
0.0460593
0.0559472
0.0824866
0.111388
0.0391135
0.0388499
0.0834964
0.0761857
0.0577731
0.0846332
0.0832716
0.0865799
0.0791067
0.0608548
0.119661
0.0897499
0.108978
0.100327
0.109909
0.118684
0.0734782
0.0824294
0.1053
0.14679
0.183033
0.185993
0.0899418
0.0597872
0.103248
0.1781
0.14231
0.134475
0.126071
0.154157
0.220445
0.113505
0.116452
0.183707
0.170922
0.15541
0.151508
0.223012
0.23238
0.250329
0.248731
0.268601
0.451293
0.484398
0.365279
0.48318
0.918814
1.07072
0.785969
0.194413
0.0291768
0.0291768
// max_z
0.0234835
0.0234835
0.156489
0.605491
0.704668
0.605872
0.562972
0.435484
0.365145
0.345446
0.282014
0.210133
0.232251
0.17348
0.163979
0.173811
0.125231
0.141753
0.163089
0.154063
0.142426
0.134937
0.113398
0.0829857
0.126382
0.120717
0.125763
0.154082
0.0821893
0.0427373
0.122635
0.10563
0.0825702
0.119183
0.100584
0.0714124
0.0401642
0.0616626
0.129432
0.139171
0.0585525
0.0401267
0.0971019
0.111575
0.0524922
0.0642363
0.0815799
0.0394611
0.0462162
0.0480194
0.063342
0.0859606
0.0516007
0.0366876
0.0444652
0.0593668
0.0350418
0.0164975
0.0479814
0.032481
0.0217755
0.0285559
0.0371014
0.0351382
0.020994
0.0271191
0.0381287
0.0211959
0.019409
0.0162988
0.015538
0.0136511
0.0126992
0.0126745
0.00559983
0.00682165
0.00200923
0.00550081
0.00187449
0.001866
0.00189217
0.000715424
0.000692806
0.000711323
0.000721872
0.00475785
0.002785
0.0044553
0.0123869
0.0137203
0.00942565
0.00854875
0.0158826
0.0367403
0.0128889
0.00634252
0.0463797
0.0416424
0.0280754
0.0398715
0.0556839
0.0255012
0.0345944
0.0485882
0.0511851
0.0879389
0.0776296
0.050708
0.0460593
0.0559472
0.0824866
0.111388
0.0391135
0.0388499
0.0834964
0.0761857
0.0577731
0.0846332
0.0832716
0.0865799
0.0791067
0.0608548
0.119661
0.0897499
0.108978
0.100327
0.109909
0.118684
0.0734782
0.0824294
0.1053
0.14679
0.183033
0.185993
0.0899418
0.0597872
0.103248
0.1781
0.14231
0.134475
0.126071
0.154157
0.220445
0.113505
0.116452
0.183707
0.170922
0.15541
0.151508
0.223012
0.23238
0.250329
0.248731
0.268601
0.451293
0.484398
0.365279
0.48318
0.918814
1.07072
0.785969
0.194413
0.0291768
0.0291768
)

// ************************************************************************* //
