/*--------------------------------*- C++ -*----------------------------------*\
| =========                 |                                                 |
| \\      /  F ield         | OpenFOAM Extend Project: Open Source CFD        |
|  \\    /   O peration     | Version:  1.6-ext                               |
|   \\  /    A nd           | Web:      www.extend-project.de                 |
|    \\/     M anipulation  |                                                 |
\*---------------------------------------------------------------------------*/
FoamFile
{
    version     2.0;
    format      ascii;
    class       scalarAverageField;
    object      values;
}
// * * * * * * * * * * * * * * * * * * * * * * * * * * * * * * * * * * * * * //

// Average
0

// Data on points
50
(
// minY
2781.80186
2781.80186
1782.024257
1717.024573
1049.729726
451.166535
271.8894421
249.447894
161.3560611
102.6405426
73.82745507
66.53741329
78.78568047
48.87644702
53.49990094
85.59983477
157.9874474
201.8743062
287.0190843
360.6533853
437.3141231
656.1849015
1629.605565
2864.107058
2864.107058
// maxY
2781.80186
2781.80186
1782.024257
1717.024573
1049.729726
451.166535
271.8894421
249.447894
161.3560611
102.6405426
73.82745507
66.53741329
78.78568047
48.87644702
53.49990094
85.59983477
157.9874474
201.8743062
287.0190843
360.6533853
437.3141231
656.1849015
1629.605565
2864.107058
2864.107058
)

// * * * * * * * * * * * * * * * * * * * * * * * * * * * * * * * * * * * * * //
