/*--------------------------------*- C++ -*----------------------------------*\
| =========                 |                                                 |
| \\      /  F ield         | OpenFOAM: The Open Source CFD Toolbox           |
|  \\    /   O peration     | Version:  1.6                                   |
|   \\  /    A nd           | Web:      http://www.OpenFOAM.org               |
|    \\/     M anipulation  |                                                 |
\*---------------------------------------------------------------------------*/
FoamFile
{
    version     2.0;
    format      ascii;
    class       volVectorField;
    location    "0";
    object      U;
}
// * * * * * * * * * * * * * * * * * * * * * * * * * * * * * * * * * * * * * //

dimensions      [0 1 -1 0 0 0 0];

internalField   uniform (5.675893 0 0);

boundaryField
{
    inlet
    {
        type            cyclic;
    }

    outlet
    {
        type            cyclic;
    }

    empty1       
    {
        type            empty;
    }

    empty2
    {
        type            empty;
    }
 
    bottom       
    {
        type            fixedValue;
        value           uniform (0 0 0);
    }

    top 
    {
        type            fixedValue;
        value           uniform (0 0 0);
    }
}

// ************************************************************************* //
