FoamFile
{
    version     2.0;
    format      ascii;
    class       dictionary;
    location    "system";
    object      fvOptions;
}
// * * * * * * * * * * * * * * * * * * * * * * * * * * * * * * * * * * * * * //

momentumSource
{
    type            pressureGradientExplicitSource;
    active          on;
    selectionMode   all;

    pressureGradientExplicitSourceCoeffs
    {
        fieldNames  (U);
        Ubar        (5.675893 0 0 );
    }
}

