/*--------------------------------*- C++ -*----------------------------------*\
| =========                 |                                                 |
| \\      /  F ield         | OpenFOAM: The Open Source CFD Toolbox           |
|  \\    /   O peration     | Version:  2.2.2                                 |
|   \\  /    A nd           | Web:      www.OpenFOAM.org                      |
|    \\/     M anipulation  |                                                 |
\*---------------------------------------------------------------------------*/
FoamFile
{
    version     2.0;
    format      ascii;
    class       scalarAverageField;
    object      values;
}
// * * * * * * * * * * * * * * * * * * * * * * * * * * * * * * * * * * * * * //

// Average
0

// Data on points
42
(
// min
9.400E-02
9.400E-02
1.010E-01
1.220E-01
1.680E-01
2.610E-01
4.600E-01
1.096E+00
3.541E+00
1.114E+01
8.564E+00
1.709E+00
1.109E+00
7.460E-01
6.940E-01
7.220E-01
9.160E-01
1.354E+00
2.448E+00
6.333E+00
0.000E+00
// max
9.400E-02
9.400E-02
1.010E-01
1.220E-01
1.680E-01
2.610E-01
4.600E-01
1.096E+00
3.541E+00
1.114E+01
8.564E+00
1.709E+00
1.109E+00
7.460E-01
6.940E-01
7.220E-01
9.160E-01
1.354E+00
2.448E+00
6.333E+00
0.000E+00
)

// ************************************************************************* //
