/*--------------------------------*- C++ -*----------------------------------*\
| =========                 |                                                 |
| \\      /  F ield         | OpenFOAM: The Open Source CFD Toolbox           |
|  \\    /   O peration     | Version:  2.2.2                                 |
|   \\  /    A nd           | Web:      www.OpenFOAM.org                      |
|    \\/     M anipulation  |                                                 |
\*---------------------------------------------------------------------------*/
FoamFile
{
    version     2.0;
    format      ascii;
    class       symmTensorAverageField;
    object      values;
}
// * * * * * * * * * * * * * * * * * * * * * * * * * * * * * * * * * * * * * //

// Average
(0 0 0 0 0 0)

// Data on points
42
(
// min
( 6.400E-03 1.000E-03 5.000E-04 4.400E-03 6.471E-08 9.400E-03)
( 6.400E-03 1.000E-03 5.000E-04 4.400E-03 6.471E-08 9.400E-03)
( 8.100E-03 1.000E-03 5.000E-04 4.400E-03 7.075E-07 9.400E-03)
( 1.100E-02 2.000E-03 1.000E-03 4.400E-03 6.184E-06 9.400E-03)
( 1.440E-02 3.500E-03 5.000E-04 5.600E-03 4.682E-05 9.400E-03)
( 1.820E-02 6.000E-03 1.500E-03 7.600E-03 2.973E-04 1.000E-02)
( 1.900E-02 1.000E-02 4.500E-03 1.100E-02 1.554E-03 1.440E-02)
( 1.225E-01 1.700E-02 7.500E-03 2.990E-02 6.514E-03 6.500E-02)
( 1.089E-01 2.800E-02 7.000E-03 4.840E-02 2.017E-02 6.760E-02)
( 9.000E-02 1.000E-02 2.500E-04 4.000E-02 4.491E-02 4.000E-02)
( 2.900E-02 2.400E-02 1.300E-02 4.600E-02 4.173E-02 5.100E-02)
( 7.800E-02 1.200E-02 1.100E-02 3.600E-02 1.559E-02 9.000E-02)
( 4.800E-02 5.000E-03 7.500E-03 1.800E-02 1.063E-03 4.000E-02)
( 2.700E-02 3.500E-03 3.400E-03 1.600E-02 3.233E-03 1.560E-02)
( 2.000E-02 2.500E-03 2.700E-03 1.500E-02 4.347E-03 1.440E-02)
( 1.800E-02 5.000E-04 1.400E-03 1.900E-02 5.489E-03 1.320E-02)
( 1.560E-02 2.500E-03 5.000E-04 4.000E-02 6.720E-03 1.390E-02)
( 1.800E-02 3.000E-03 2.000E-03 3.100E-02 7.653E-03 1.740E-02)
( 2.800E-02 2.500E-03 4.500E-03 2.400E-02 8.727E-03 1.960E-02)
( 3.200E-02 2.500E-03 1.000E-05 1.700E-02 2.181E-03 3.420E-02)
( 0.000E+00 0.000E+00 0.000E+00 0.000E+00 0.000E+00 0.000E+00)
// max
( 6.400E-03 1.000E-03 5.000E-04 4.400E-03 6.471E-08 9.400E-03)
( 6.400E-03 1.000E-03 5.000E-04 4.400E-03 6.471E-08 9.400E-03)
( 8.100E-03 1.000E-03 5.000E-04 4.400E-03 7.075E-07 9.400E-03)
( 1.100E-02 2.000E-03 1.000E-03 4.400E-03 6.184E-06 9.400E-03)
( 1.440E-02 3.500E-03 5.000E-04 5.600E-03 4.682E-05 9.400E-03)
( 1.820E-02 6.000E-03 1.500E-03 7.600E-03 2.973E-04 1.000E-02)
( 1.900E-02 1.000E-02 4.500E-03 1.100E-02 1.554E-03 1.440E-02)
( 1.225E-01 1.700E-02 7.500E-03 2.990E-02 6.514E-03 6.500E-02)
( 1.089E-01 2.800E-02 7.000E-03 4.840E-02 2.017E-02 6.760E-02)
( 9.000E-02 1.000E-02 2.500E-04 4.000E-02 4.491E-02 4.000E-02)
( 2.900E-02 2.400E-02 1.300E-02 4.600E-02 4.173E-02 5.100E-02)
( 7.800E-02 1.200E-02 1.100E-02 3.600E-02 1.559E-02 9.000E-02)
( 4.800E-02 5.000E-03 7.500E-03 1.800E-02 1.063E-03 4.000E-02)
( 2.700E-02 3.500E-03 3.400E-03 1.600E-02 3.233E-03 1.560E-02)
( 2.000E-02 2.500E-03 2.700E-03 1.500E-02 4.347E-03 1.440E-02)
( 1.800E-02 5.000E-04 1.400E-03 1.900E-02 5.489E-03 1.320E-02)
( 1.560E-02 2.500E-03 5.000E-04 4.000E-02 6.720E-03 1.390E-02)
( 1.800E-02 3.000E-03 2.000E-03 3.100E-02 7.653E-03 1.740E-02)
( 2.800E-02 2.500E-03 4.500E-03 2.400E-02 8.727E-03 1.960E-02)
( 3.200E-02 2.500E-03 1.000E-05 1.700E-02 2.181E-03 3.420E-02)
( 0.000E+00 0.000E+00 0.000E+00 0.000E+00 0.000E+00 0.000E+00)
)

// ************************************************************************* //
