FoamFile
{
    version     2.0;
    format      ascii;
    class       dictionary;
    object      RASProperties;
}
// * * * * * * * * * * * * * * * * * * * * * * * * * * * * * * * * * * * * * //

RASModel        $FOAM_CASENAME;

turbulence      on;

printCoeffs     on;

// ************************************************************************* //
