/*--------------------------------*- C++ -*----------------------------------*\
| =========                 |                                                 |
| \\      /  F ield         | OpenFOAM: The Open Source CFD Toolbox           |
|  \\    /   O peration     | Version:  4.0                                   |
|   \\  /    A nd           | Web:      www.OpenFOAM.org                      |
|    \\/     M anipulation  |                                                 |
\*---------------------------------------------------------------------------*/
FoamFile
{
    version     2.0;
    format      binary;
    class       volScalarField;
    object      k;
}
// * * * * * * * * * * * * * * * * * * * * * * * * * * * * * * * * * * * * * //

dimensions      [0 2 -2 0 0 0 0];

internalField   uniform 0.02;

boundaryField
{
    inlet
    {
        type            timeVaryingMappedFixedValue;
        offset          0;
	setAverage      off;
    }
    outlet
    {
        type            zeroGradient;
    }
    ".*Wall"
    {
        type            kqRWallFunction;
        value           $internalField;
    }
    frontAndBack
    {
        type            empty;
    }
}

// ************************************************************************* //
