/*--------------------------------*- C++ -*----------------------------------*\
| =========                 |                                                 |
| \\      /  F ield         | OpenFOAM: The Open Source CFD Toolbox           |
|  \\    /   O peration     | Version:  2.2.2                                 |
|   \\  /    A nd           | Web:      www.OpenFOAM.org                      |
|    \\/     M anipulation  |                                                 |
\*---------------------------------------------------------------------------*/
FoamFile
{
    version     2.0;
    format      ascii;
    class       volScalarField;
    object      epsilon;
}
// * * * * * * * * * * * * * * * * * * * * * * * * * * * * * * * * * * * * * //

dimensions      [0 2 -3 0 0 0 0];

internalField   uniform 1;

boundaryField
{
    empty
    {
        type            empty;
    }
    inlet
    {
        type            timeVaryingMappedFixedValue;
        setAverage      off;
        offset          0;
        value           $internalField;
    }
    wall
    {
        type            epsilonWallFunction;
        value           $internalField;
    }
    outlet
    {
        type            zeroGradient;
    }
}

// ************************************************************************* //
